64
CSD_code = BEPQOF | q = 1 | S = 0 | Stoichiometry = C30H25CoN5O3(1+) | MND = 6
Co        8.19906193681760    4.97858799216028    9.00590297649642
N         7.66474115481673    4.30355964951907    7.22559409539258
C         6.60087697634892    3.49860829187626    7.09800747862138
C         5.84642959773473    3.12216543381068    8.37388932799778
C         4.67106367589955    2.19303139757766    8.05924798079446
H         3.97430187586855    2.67805009080199    7.38152270025235
H         4.14297604829373    1.92180558032350    8.97049301983057
H         5.02279353237561    1.28624042088597    7.57546775990234
C         6.18888990317185    3.01889357347843    5.86807299704107
H         5.33936218583676    2.37400064076819    5.72356533152027
C         6.89365018349081    3.37454889382525    4.73626414464541
C         7.99172676178069    4.19912886860193    4.86705073337025
H         8.51965908280659    4.45446367808877    3.96450092014756
C         8.34767662954961    4.64586972172774    6.12663809564874
C         9.54637674309608    5.56170817341966    6.32755255898432
C        10.23799429539496    5.86764508851056    4.99703558146284
H        10.57967032169640    4.95089966911002    4.52526754361914
H        11.09192536061160    6.52242932983315    5.15530712861136
H         9.54808777472492    6.34927093024491    4.31024321706218
C         6.43134075445248    2.82087779683936    3.25864887205218
O         5.44254228600793    2.12010512181061    3.33858900381236
O         7.17189602640060    3.22366640093943    2.38443621219495
N         7.88530374966629    3.19226508704711    9.73508034329607
C         6.83751016619150    2.46311050072240    9.31891096627763
C         6.65611961844095    1.15417009454555    9.75787535558816
H         5.83012702290549    0.56507040238411    9.40347940110902
C         7.53688988874757    0.59051243244143   10.66105294551210
H         7.40269311317924   -0.42576211875638   10.99509400084431
C         8.57401745574752    1.37571465255609   11.13823682614110
H         9.27177449426597    1.00831627492361   11.87204391512647
C         8.70129814935473    2.65804471496691   10.64887017636195
H         9.48275074344864    3.29171432933419   11.02937128032811
N         6.31024105975380    5.30345606391347    9.39740353157681
C         5.37694644512846    4.41090472869593    9.02894627394435
C         4.02470306290028    4.65323333799460    9.25626183272346
H         3.27931699905632    3.94487704486398    8.94405692666117
C         3.61767532223047    5.81129360908269    9.89055334453566
H         2.57042431666948    6.00351411758652   10.06002545200646
C         4.59222799081418    6.69944272381927   10.31616297505948
H         4.34251680763043    7.60522594183032   10.84296395849561
C         5.91100808948985    6.39966916771309   10.04941515733665
H         6.68159907643687    7.06504340076236   10.39619085662464
N        10.09480448221923    4.75103378781751    8.57887814809257
C        10.50736480835752    4.90229881602719    7.31102779473939
C        11.80406854033133    4.55490553788537    6.94485107453236
H        12.12072538877879    4.61225824856832    5.91898566541345
C        12.71096580917225    4.14411685897625    7.90515300963968
H        13.71143094838557    3.85718237388470    7.62326759537961
C        12.31959339080681    4.17977692112492    9.23432868650799
H        13.01111657889188    3.97241113756441   10.03377140829648
C        11.00570739598722    4.48870818136570    9.51666571619375
H        10.67411586495473    4.60509131962720   10.53683277652170
N         8.62090892523860    6.74104109140205    8.27067174681734
C         9.07245902594961    6.83988464414322    7.01105136162575
C         9.18912920274867    8.08384286786065    6.39862009222872
H         9.48817336845409    8.16502332435235    5.36907265242421
C         8.93585525371116    9.23841476856750    7.11708481979124
H         9.00820151344557   10.20356411324493    6.64176217831032
C         8.65806769196217    9.12110114397928    8.46999842418900
H         8.55536992532652    9.98608921045615    9.10370258870208
C         8.51202189364501    7.85486397794015    8.99600787622218
H         8.37505576436738    7.71069196615021   10.05684627252615
O         8.67206519875365    5.59545145426373   10.69854011477814
H         8.11141234927664    5.31007500421723   11.42378679805775
