30
CSD_code = JIQBET | q = 0 | S = 0 | Stoichiometry = C12H11Cl3CrN2O | MND = 6
Cr        5.67846673962396   -0.59517683504080    0.92427255646831
Cl        7.87755154834337    0.02036171886352    1.06074579341946
Cl        6.14964028091820   -2.23229974727399    2.30787531106645
Cl        3.49368996839310   -0.88025102996203    1.48099797683393
O         5.70512808961830   -1.38484831772859   -0.52573383635213
H         5.73867745359817   -1.87679293108328   -1.34832986691257
N         5.59838146772377    0.72654825042786    2.57921272323900
C         5.70367716212626    0.43567528262996    3.87485523951331
H         5.78708450123836   -0.61485090446866    4.12298493409909
C         5.71421389609893    1.40124326158760    4.86359356762399
H         5.80445650459989    1.10473430772821    5.89553313443127
C         5.61184170460715    2.74434481086207    4.50905874303415
H         5.62348483001596    3.51576403636155    5.26363741262679
C         5.49312436976733    3.06298692342687    3.17586078416335
H         5.40649295010004    4.08426401912577    2.84079628292265
C         5.48643930515040    2.02976383838429    2.22989229857776
C         5.34546608170139    2.21615551358997    0.82806497630500
H         5.22924473812315    3.19837606623416    0.38456583928383
N         5.32561477490950    1.12781092568113    0.12341835256748
C         5.18652795407563    1.23011796435917   -1.26628072559261
C         6.08015477065515    1.99362254676283   -2.01288624144209
H         6.89277510820673    2.49833720867848   -1.51162872504300
C         5.94622466007171    2.05193692315253   -3.38869337488408
H         6.64965686925320    2.63038171875385   -3.96808045339127
C         4.91729990678927    1.37279679005167   -4.01994633460088
H         4.81499050039349    1.42424806219802   -5.09315154950396
C         4.02022100210499    0.62403498327632   -3.27326741674768
H         3.21343847833755    0.09997008089940   -3.76308103376408
C         4.15282810889259    0.54284126668456   -1.89936112595494
H         3.45720627456448   -0.02899673416230   -1.29982524198522
