67
CSD_code = NACGAC | q = 0 | S = 0 | Stoichiometry = C26H27CoN2O5P2S4 | MND = 5
C        11.26914066977276    3.27457185559430    4.52780921210234
C        12.07214318143451    4.38098124766217    4.30098921763065
H        12.17581510591797    4.77387436161068    3.30111920041216
C        12.74848979232231    4.95993861982846    5.36079218517669
H        13.37810264061366    5.82028556525469    5.18891711544947
C        12.62439647579750    4.43806153320735    6.63785546255516
H        13.15621411666123    4.89342300937545    7.46021737565413
C        11.82000841252519    3.33186812033583    6.86327696500671
H        11.72321265727674    2.92677292642868    7.86002428311467
C        11.14132833806512    2.75185542236043    5.80829970189587
H        10.49971162488888    1.89326504008262    5.95893928662756
C        10.61508433254852    3.39329817211991    1.69079600608537
C        11.43231207048428    3.05581753620612    0.62226930753004
H        11.99015273526274    2.13451938412085    0.63128992167455
C        11.52463716677635    3.92057789022945   -0.45618631958736
H        12.15682638933126    3.65922898178234   -1.29151528446881
C        10.81391285938096    5.10926022016459   -0.47141740259246
H        10.89223110219017    5.77485608077940   -1.31839469038346
C         9.99729551684049    5.44296192095899    0.59755123220050
H         9.43757442880571    6.36640236021583    0.58810643135286
C         9.89564376767527    4.58590014193635    1.67696769140350
H         9.25178416511372    4.82268825340665    2.51428849786849
C        12.90293274849143   -0.77273013207760    3.77329205422750
H        12.28202908255055   -1.65121524759056    3.65303684471310
H        12.87624543906447   -0.38880441856389    4.78408691777410
H        13.92004483709938   -0.97097117564939    3.46040705400857
C         8.42285888408474   -4.68870598908500    3.17390134094610
C         9.29531413016256   -5.15185399422317    4.14925293084702
H         9.78244570716322   -4.44444909981605    4.80638738035586
C         9.53247960561865   -6.50918435478801    4.26406818056464
H        10.20904900870619   -6.87794064513773    5.02080927944539
C         8.90120434876709   -7.39628114923713    3.40561177735213
H         9.08874047916892   -8.45601522001359    3.49656729181735
C         8.03287173726459   -6.92939636052651    2.43165773225813
H         7.54467668878867   -7.62499249221649    1.76530736653069
C         7.79196067418984   -5.57203599578384    2.31241928920721
H         7.11897074111382   -5.16997250539214    1.57068904485372
C         7.57124048802768   -2.34378718576966    4.67011354819123
C         8.18131036231381   -1.29950085566546    5.35019021032887
H         9.09023819220580   -0.84080990448817    4.95171459598002
C         7.63810169195367   -0.83932669535471    6.53669861387306
H         8.10150487376059   -0.01517364969940    7.05828398952635
C         6.49282940209728   -1.42936977020289    7.04666310740551
H         6.06587670733072   -1.06378167695058    7.96854213491059
C         5.88769520903266   -2.47813025578494    6.37213132861423
H         4.99112553738519   -2.93108365089550    6.76796804764915
C         6.42313344123795   -2.93467985580739    5.18155250642486
H         5.95484841502588   -3.73525733701981    4.62577574821869
C         6.83765234960718   -0.75859043188042    0.05289379075125
H         6.92412954433702   -1.66073112590125   -0.53794918292969
H         7.77483617972307   -0.21138530466869    0.08709795088342
H         6.03397992519489   -0.12894734124799   -0.30513279185259
Co        9.03712658235751    0.15563503956566    2.84923144746210
N        10.74527865477236    0.81343218768014    3.32856366253484
N         6.95834446263760   -2.75819112581378    1.92593715136319
O        12.98535778911150    1.71953659029484    2.88598591709983
O        12.16500428058397   -0.00358597580764    1.35338060740626
O         7.22337227303187   -0.36164536796171    2.65764214559661
O         5.03712684059116   -1.14741058825209    1.94406319652462
O         9.40281587138272    0.79298344135079    1.20243663774287
H        10.23247169833919    0.43154017773163    0.85956003994117
P        10.36431105783115    2.41842302882050    3.20787077494067
P         8.12667838768800   -2.91703971029889    3.02329148125808
S         8.41678360083516    2.26203282243664    3.67482648502657
S        12.23576098932242    0.50308236218216    2.69425962530383
S         9.87285079680144   -2.00928801636606    2.53709036990185
S         6.44697273362673   -1.24120968770467    1.74242697844383
