96
CSD_code = YIHCAV | q = 0 | S = 0 | Stoichiometry = C42H48N2OP2Ru | MND = 6
Ru        8.66441488153916    4.85944156572504   10.25951264991767
H         9.02956748320717    3.60668987321877   11.09991068018487
P        10.40767569062457    4.41994229017141    8.88426634474905
P         9.75646517411388    6.26625488653220   11.64895237362670
O         7.75694638951201    6.46074769456545    9.09319644641521
H         8.10240226062294    7.34511446582684    9.21869243837423
N         7.24364586493982    3.85688612025920    8.98153654576146
H         7.04354045217266    4.71750255672461    8.45679915929919
H         7.58873627482396    3.15931278843283    8.32148166881008
N         6.75786471883279    4.88260355894520   11.39284588469876
H         6.91517038727977    4.26387946308126   12.18893331501098
H         6.59712618409533    5.81787892085284   11.76850426163826
C         6.01350984863824    3.36779079276133    9.61384320623747
C         5.56176059608850    4.45992794142918   10.64198914751482
C         4.96011917161916    3.10041405448598    8.52831968423804
H         5.27008777534832    2.24967697308544    7.92317212606304
H         4.84584788575176    3.95680133744085    7.86866199427256
H         3.99340471847803    2.86517485448075    8.96548398075009
C         6.34777824800999    2.03853237546573   10.30001327822331
H         6.76649265013398    1.35188580191143    9.56610885216853
H         5.46165815443386    1.57687076928224   10.72514670361830
H         7.09457218162997    2.18954525207697   11.07584912130680
C         5.01965131710709    5.71644073330025    9.95199623756139
H         4.65560257378528    6.41314487447492   10.70682096228284
H         4.19656433488574    5.49616338055606    9.28041524884695
H         5.83459061204320    6.20797464572975    9.40822160159709
C         4.50765852145818    3.93565999710021   11.62706758355381
H         4.20045269680607    4.74108173784413   12.29280155993432
H         4.89754295091063    3.12569508034965   12.23860021468335
H         3.62472553868138    3.58136510156081   11.10167997679593
C        10.87996122123773    5.47114084008779    7.45046320145052
C         9.87231539662748    6.23939021358309    6.87383613128880
H         8.89097057299643    6.24014369893587    7.33886162479678
C        10.13697742697063    7.02739612022029    5.76820082259840
H         9.35099300681077    7.62676161172557    5.33056689296508
C        11.41085541025853    7.05037517849437    5.22509746885122
H        11.62206038044829    7.66528994238212    4.36164452210200
C        12.41742419906920    6.28453945699232    5.79207750770808
H        13.41129767208595    6.29988747606838    5.36693557810005
C        12.15716812209758    5.49500427510899    6.89768591568136
H        12.94389251849841    4.89265784781280    7.33011975342248
C        10.17782730639692    2.83192619027301    7.97577253489154
C         9.72579145596373    1.73810125377519    8.71410986789605
H         9.53970298065148    1.87671873239292    9.77061906190020
C         9.50531690316107    0.51490940884580    8.10919607037158
H         9.16300180638165   -0.32541744110649    8.69724352097431
C         9.72209170077880    0.36660222822987    6.74820046442449
H         9.54792585575529   -0.58649741074998    6.27004687843598
C        10.15904854152045    1.44873384185278    6.00408086895067
H        10.32551856428774    1.34070226137701    4.94174538133040
C        10.38730853801078    2.67343073453794    6.61007463739124
H        10.72891405026450    3.50392445119053    6.01031788015633
C        12.05677376168075    4.15510289168926    9.63411793877136
C        12.79551023976747    5.28070814151524    9.99486763541512
H        12.40303736182589    6.26651868065516    9.78170861884567
C        14.02646499530497    5.14926927943842   10.60704396066452
H        14.59333185882787    6.03046863595066   10.87088382568896
C        14.52908842612404    3.88984678794307   10.88942137658817
H        15.49011587782814    3.78554952401538   11.37159463872630
C        13.79361653164059    2.76718713256238   10.55218656193673
H        14.18060630624564    1.78235284105852   10.77291199324109
C        12.56579809372081    2.89610898606652    9.92673816988607
H        12.00594649492808    2.01216769593868    9.65987436969154
C        10.19410739886493    7.96705556923829   11.10822187094628
C        10.52820375308497    8.15338752791758    9.77312309884200
H        10.49280796811126    7.30216191770311    9.10655195730548
C        10.87351151691371    9.40403520784070    9.29363706316509
H        11.12815343936119    9.52818770522181    8.25051493933433
C        10.88461363254614   10.49019701579252   10.15222439666531
H        11.14987623258957   11.47109424396807    9.78491593852629
C        10.54669252587914   10.31750736558762   11.48546581195912
H        10.55078506880418   11.16476270453951   12.15696117549585
C        10.20239204353068    9.06632885509051   11.96431511866827
H         9.93562126979354    8.94395893661492   13.00563319093262
C        11.27450390271092    5.81849605070414   12.58640226119194
C        11.45256882299780    4.46995210788099   12.87848708808876
H        10.72368728193078    3.76467189774326   12.50296863125258
C        12.54548405056742    4.04434377848909   13.60848043154769
H        12.67322427347702    2.99385759027067   13.82692833467448
C        13.47967868892660    4.96479951635528   14.05381484232557
H        14.33783552642113    4.63692522139188   14.62270355276931
C        13.31437868126182    6.30719757804577   13.75993557818586
H        14.04474100461861    7.02802459476539   14.10026369984661
C        12.21935230004713    6.73562499450686   13.03014277762891
H        12.11279808743678    7.78581732735033   12.80121816227758
C         8.65359350786032    6.69065213009038   13.05281434222130
C         8.73456404018509    6.05681262555346   14.28772062157217
H         9.54660819771601    5.37023709878336   14.48139018473674
C         7.78754090549945    6.30981646293939   15.26575216619657
H         7.86483381496246    5.82069754987230   16.22633392609506
C         6.74372407061822    7.18705329717736   15.02075724504444
H         6.00860868534141    7.38397296244470   15.78746528059210
C         6.64494091862021    7.81238165318953   13.78711072902637
H         5.83085532993715    8.49638354869854   13.59054273204942
C         7.58858073387311    7.56082495078351   12.80817398844456
H         7.51760320975457    8.04747861707253   11.84255993917727
