39
CSD_code = ZEDGIB | q = 0 | S = 0 | Stoichiometry = C12H15N5O6Ru | MND = 6
Ru        0.89589453563322    3.46546839185456    2.55396166539056
O         0.29760214112600    3.22393222707928    0.74442823746271
H        -0.26971063540254    3.84214208582202    0.27183279274498
O         1.74922636573461    3.59710352934035    5.25987660412718
O        -1.46323976481364    4.79901105758774    2.16352561301865
O        -1.45859941175006    3.58578906069277    3.93724153939329
O         1.81630418342343    5.52833180228836    1.02181703837783
O         1.31722860042311    6.13461995368017    3.02110582014870
N         1.40015585980358    3.57511237441007    4.15313151916371
N        -0.92702070625104    4.05612340414732    2.95211045559433
N         1.40981115451405    5.30811649433110    2.14010248160675
N         2.90507030686987    2.69883409934468    1.82233289285851
N         0.21913811322024    1.28552922643308    2.81925198856715
C         3.24932378408745    2.92332875989365    0.55839340162493
H         2.55904016694585    3.52162035430047   -0.02422780972250
C         4.41932150100478    2.43296738035657    0.00471496983929
H         4.65398318429223    2.65029443983485   -1.02555067789520
C         5.28347336309403    1.67100976656435    0.78173585403435
C         4.90493685628693    1.43704142246333    2.10302614081223
H         5.53354448676108    0.85124962759446    2.75583739363528
C         3.72093607941481    1.96395913305209    2.57827953897049
H         3.41666620210094    1.79184724818736    3.60432979072451
C         6.56825665246198    1.13708361905867    0.24385285450715
H         6.59494322146172    1.19939786882984   -0.84048245740439
H         6.71185712530349    0.10241293117922    0.54824916408976
H         7.40045099387045    1.71746993052211    0.64198365254445
C         0.18455203538445    0.50007251188503    1.74683630280748
H         0.59466254911934    0.92258002347775    0.83705811258420
C        -0.36203824331291   -0.76972421271813    1.76631416960816
H        -0.36873808452075   -1.36472163669078    0.86613106706767
C        -0.90821981433157   -1.26535507354379    2.94587021473978
C        -0.86432056934558   -0.43222281822505    4.06059907735183
H        -1.27614067083663   -0.75747160847345    5.00308424091511
C        -0.29872505477826    0.82422505160289    3.95631793057822
H        -0.27727931884330    1.48851675206851    4.81041921912740
C        -1.53667324629932   -2.61656592310807    3.01547831621176
H        -1.23886155847088   -3.23205922264442    2.17079585971883
H        -2.62170013055363   -2.51403594832440    2.99901254770425
H        -1.26641225282890   -3.11973408415683    3.94122247737199
