62
Properties=species:S:1:pos:R:3 pbc="F F F"
Co       0.00000000       0.00000000       0.00000000 
O      -0.13785800      -1.99078400       0.05996700 
C       0.92938900      -2.85599600       0.08477200 
C       0.68361800      -4.21974800      -0.10917000 
C       1.70942700      -5.15522300       0.05176000 
C       2.99105900      -4.74088100       0.42222700 
C       3.26347500      -3.38426700       0.61889800 
C       2.25970400      -2.42795600       0.42350900 
C       2.50640200      -1.00594700       0.73838400 
N       3.08522100      -0.54552100       1.89698700 
C       2.67294100       0.74768200       1.98621000 
C       2.77699300       1.66961600       3.03043600 
C       2.01993800       2.86984800       2.92444700 
C       1.10706300       3.07044600       1.84656900 
C       1.00089400       2.07766600       0.84872900 
O       0.11661800       1.99078400      -0.05996700 
C       1.90490800       1.00443100       0.90412400 
N       2.10000000       0.00000000       0.00000000 
H      -0.31598200      -4.56056400      -0.34783400 
H       1.50223400      -6.21005600      -0.08036900 
H       3.77207700      -5.47470800       0.57434300 
H       4.25648700      -3.08043700       0.92828500 
H       3.53873000      -1.09787300       2.65810500 
H       3.37763500       1.46261100       3.90616000 
H       2.07010400       3.60178300       3.71971900 
H       0.45592000       3.93488400       1.83754000 
N      -2.10000000       0.00000000       0.00000000 
C      -2.78408400      -0.73636800       0.92704900 
C      -4.17879100      -0.74666200       0.94502500 
C      -4.88382100       0.00012400      -0.00285300 
C      -6.28711500       0.00733000      -0.01487300 
C      -6.97491600       0.75618000      -0.97419200 
C      -6.26905600       1.50044400      -1.92407200 
C      -4.87054300       1.50253800      -1.91932700 
C      -4.17059800       0.75446900      -0.96051600 
C      -2.76878900       0.73957100      -0.93390900 
H      -2.24637300      -1.32083500       1.65984900 
H      -4.69908800      -1.33546400       1.69113500 
H      -6.84926800      -0.56482000       0.71369000 
H      -8.05726000       0.75877600      -0.98181100 
H      -6.80731100       2.07683400      -2.66531900 
H      -4.33899500       2.08463600      -2.66251200 
H      -2.20698900       1.31535900      -1.65775300 
N       0.00000000       0.00000000       2.10000000 
C       0.43264700      -1.07845400       2.85010200 
C       0.41678300      -1.09460100       4.24208400 
C      -0.07568400      -0.00306600       4.93470400 
C      -0.04023700       0.03515200       6.33647700 
C      -0.53016900       1.15348600       7.01424300 
C      -1.07454900       2.22253700       6.29713700 
C      -1.13191000       2.17859700       4.89854100 
C      -0.62543200       1.06673500       4.20853100 
C      -0.63087900       1.01178100       2.80301600 
H       0.82898700      -1.95816600       2.40623600 
H       0.81186400      -1.95631900       4.76828200 
H       0.38035900      -0.78767400       6.90259700 
H      -0.48485200       1.19029800       8.09516500 
H      -1.44469200       3.09122800       6.82710500 
H      -1.54748900       3.02149400       4.35933300 
H      -1.09117600       1.83055200       2.26641800 
O       0.00000000       0.00000000      -2.08000000 
H       0.00000000       0.00000000      -3.50051500 
