61
Properties=species:S:1:pos:R:3 pbc="F F F"
Co       0.00000000       0.00000000       0.00000000 
O      -0.09661900       1.97676500      -0.02312400 
C       0.96795400       2.84507400      -0.04519300 
C       0.72746100       4.19383800      -0.32764800 
C       1.76165400       5.13082600      -0.24067600 
C       3.04493300       4.73234300       0.14521300 
C       3.31001200       3.39062800       0.43161400 
C       2.29499600       2.43437600       0.30855400 
C       2.52100400       1.03198500       0.68969100 
N       3.07796700       0.60817600       1.87219100 
C       2.60845800      -0.66271200       2.02667700 
C       2.66676500      -1.52728300       3.12223900 
C       1.85747000      -2.69551800       3.08341000 
C       0.94208400      -2.92739800       2.01308300 
C       0.87236100      -1.99511100       0.95466900 
O       0.00413200      -1.97676500       0.02312400 
C       1.81616800      -0.94217900       0.95928700 
N       2.10000000       0.00000000       0.00000000 
H      -0.27113700       4.52323900      -0.58579100 
H       1.56154900       6.17437500      -0.44686600 
H       3.83341100       5.46838200       0.23502000 
H       4.30387700       3.09752500       0.74664300 
H       3.54382900       1.17927000       2.61141400 
H       3.27234100      -1.29656600       3.98854300 
H       1.87245900      -3.38015300       3.92210200 
H       0.26397800      -3.77009900       2.04994400 
O      -2.08000000       0.00000000       0.00000000 
H      -3.50051500       0.00000000       0.00000000 
N       0.00000000       0.00000000       2.10000000 
C       0.44964100       1.07184800       2.84652000 
C       0.39432100       1.06888800       4.23307100 
C      -0.19853600       0.00131200       4.88924800 
C      -0.22132400      -0.07614000       6.28842400 
C      -0.84195700      -1.16179300       6.91218000 
C      -1.45189400      -2.15787500       6.14065200 
C      -1.43148900      -2.07888400       4.74275700 
C      -0.79318500      -1.00416800       4.11440700 
N      -0.70461300      -0.94445500       2.75492300 
H       0.91458800       1.92317500       2.39939900 
H       0.83065800       1.89261300       4.79010200 
H       0.24807800       0.69080100       6.89526900 
H      -0.84898200      -1.23075800       7.99251900 
H      -1.93405200      -2.99464200       6.62819300 
H      -1.89356800      -2.86011700       4.15332900 
N       0.00000000       0.00000000      -2.10000000 
C       1.06827000       0.51152100      -2.78754900 
C       1.09193700       0.51755800      -4.18220400 
C       0.00223400       0.00811000      -4.89084500 
C      -0.00825700       0.00705900      -6.29376900 
C      -1.11363300      -0.49848500      -6.98429300 
C      -2.21096100      -1.00430300      -6.28108000 
C      -2.20716800      -1.01296800      -4.88294300 
C      -1.10169300      -0.50896800      -4.18082100 
C      -1.07299800      -0.50878700      -2.77962900 
H       1.91604800       0.92181800      -2.26319600 
H       1.95341100       0.92278800      -4.69976700 
H       0.83376300       0.39683700      -6.85329200 
H      -1.12037300      -0.49641500      -8.06648400 
H      -3.06558700      -1.39097900      -6.82065600 
H      -3.06540800      -1.40846000      -4.35287700 
H      -1.91043900      -0.91674900      -2.23496500 
