64
Properties=species:S:1:pos:R:3 pbc="F F F"
Cr       0.00000000       0.00000000       0.00000000 
C      -0.28472400      -4.24928600      -0.52821300 
C       1.05015200      -4.59388900      -0.30239600 
C       1.96907800      -3.61558300       0.07867700 
C       1.53439800      -2.29184400       0.19290100 
C       2.39603500      -1.17619100       0.57636800 
C       3.40102500      -1.24834800       1.55328300 
C       3.94403400      -0.04753700       2.03622600 
C       3.39625200       1.17435300       1.61546500 
C       2.39383900       1.14623000       0.63533500 
C       1.53710800       2.28001100       0.23859500 
C       2.00307600       3.60157500       0.22581000 
C       1.12553400       4.61827500      -0.12374800 
C      -0.19022900       4.29665800      -0.42964100 
C      -0.60594800       2.96306600      -0.35800400 
N       0.22219100       1.96210400       0.00000000 
N       2.10000000       0.00000000       0.00000000 
N       0.20445300      -1.96210400       0.00000000 
C      -0.69512800      -2.92339000      -0.36005100 
H      -0.99853300      -5.00586600      -0.82716600 
H       1.37292300      -5.61932900      -0.42775800 
H       3.00543200      -3.87941000       0.24692000 
H       3.69739200      -2.19211700       1.99263200 
H       4.69186700      -0.06617000       2.81820300 
H       3.69496800       2.09753500       2.09439600 
H       3.03351100       3.83473100       0.46173300 
H       1.46266200       5.64605900      -0.16127100 
H      -0.89059800       5.07276400      -0.70999100 
H      -1.63894700       2.73223300      -0.57968100 
H      -1.73033200      -2.65904500      -0.52539800 
N      -2.10000000       0.00000000       0.00000000 
C      -2.84945100      -0.10938300       1.14324900 
C      -4.23495100      -0.10682800       1.09476000 
C      -4.86867400      -0.02256200      -0.13425000 
C      -6.26817300      -0.03309400      -0.22560000 
C      -6.88262800       0.02086600      -1.47556600 
C      -6.10169200       0.08205900      -2.63907400 
C      -4.70178900       0.10306200      -2.55046000 
C      -4.08004900       0.05247900      -1.29821300 
N      -2.71720100       0.07204500      -1.18915700 
H      -2.40796000      -0.21307500       2.11198400 
H      -4.80331700      -0.18090500       2.01532200 
H      -6.87924200      -0.08723300       0.66809900 
H      -7.96208400       0.00863300      -1.54611300 
H      -6.58770200       0.11474200      -3.60409000 
H      -4.11197000       0.14964200      -3.45551400 
N       0.00000000       0.00000000       2.10000000 
C      -0.44247900       1.08665600       2.80906800 
C      -0.42742600       1.07484000       4.20169400 
C       0.07693800      -0.04093200       4.86671700 
C       0.12421900      -0.09998100       6.26734800 
C       0.65755400      -1.22839500       6.89875500 
C       1.14426800      -2.29642900       6.13673300 
C       1.08827400      -2.24718500       4.73978200 
C       0.55059400      -1.12353000       4.10342000 
N       0.48200900      -1.06687100       2.74815900 
H      -0.84283700       1.94992600       2.29935600 
H      -0.80297700       1.93021100       4.75030500 
H      -0.24544700       0.72213100       6.86882300 
H       0.69745600      -1.27318500       7.97949400 
H       1.56277700      -3.16395600       6.63031600 
H       1.46488700      -3.07815500       4.15613500 
O       0.00000000       0.00000000      -2.08000000 
H       0.00000000       0.00000000      -3.50051500 
