64
Properties=species:S:1:pos:R:3 pbc="F F F"
Fe       0.00000000       0.00000000       0.00000000 
C      -0.33360100       4.19225700      -0.60690000 
C       1.00666000       4.57309900      -0.52441700 
C       1.98113700       3.62981900      -0.19867300 
C       1.59408500       2.30144900       0.01487100 
C       2.52805200       1.22497300       0.33915000 
C       3.77939300       1.37220400       0.96437700 
C       4.46768600       0.21021200       1.36085300 
C       3.86279300      -1.04984100       1.19934400 
C       2.61315500      -1.10370000       0.55916200 
C       1.72769400      -2.26672800       0.38575100 
C       2.12937600      -3.58867400       0.62078200 
C       1.19812600      -4.60670400       0.46529000 
C      -0.10152900      -4.28271200       0.09591900 
C      -0.44586200      -2.94132700      -0.10251800 
N       0.43904400      -1.93671600       0.04839300 
N       2.10000000       0.00000000       0.00000000 
N       0.26343200       1.93671600      -0.04839300 
C      -0.69088500       2.86515500      -0.35502000 
H      -1.09172700       4.92118200      -0.86229600 
H       1.29062000       5.59933900      -0.71854300 
H       3.02001900       3.92779700      -0.14628500 
H       4.18612300       2.34707100       1.19746000 
H       5.41770100       0.29244700       1.87250400 
H       4.33473100      -1.93462500       1.60372900 
H       3.14326700      -3.82870000       0.91095300 
H       1.48028700      -5.63842600       0.63074300 
H      -0.84256500      -5.06124400      -0.03137500 
H      -1.46342300      -2.70341000      -0.38189500 
H      -1.72981900       2.57233000      -0.41334800 
O      -2.08000000       0.00000000       0.00000000 
H      -3.50051500       0.00000000       0.00000000 
N       0.00000000       0.00000000       2.10000000 
C       1.11076700       0.10875300       2.90178300 
C       1.03612800       0.10246800       4.27869000 
C      -0.19552800       0.01043900       4.88180300 
C      -0.29813000       0.01204200       6.27879500 
C      -1.55154400      -0.06032300       6.87672900 
C      -2.70140900      -0.13632200       6.08128100 
C      -2.59906000      -0.14437600       4.67881300 
C      -1.34024100      -0.07510400       4.06624800 
N      -1.20142800      -0.08261900       2.69933600 
H       2.08686800       0.20712900       2.53692400 
H       1.94749000       0.18247300       4.86263000 
H       0.58963600       0.07435100       6.90035800 
H      -1.62922400      -0.05271400       7.95635000 
H      -3.67083200      -0.18256100       6.55621600 
H      -3.49716000      -0.20239700       4.07785600 
N       0.00000000       0.00000000      -2.10000000 
C       1.16273400       0.04113000      -2.82459400 
C       1.13354300       0.04206200      -4.21244100 
C      -0.09209400       0.00021000      -4.86450800 
C      -0.16781200      -0.00152400      -6.26542100 
C      -1.41301300      -0.04536200      -6.89277300 
C      -2.58440000      -0.08527100      -6.12913500 
C      -2.51560100      -0.08257800      -4.72898000 
C      -1.26947900      -0.04069800      -4.09212000 
N      -1.18074600      -0.03931500      -2.73078300 
H       2.12697900       0.07433700      -2.35075100 
H       2.06405600       0.07400700      -4.76774000 
H       0.73391000       0.02856300      -6.86767500 
H      -1.46919400      -0.04762400      -7.97372300 
H      -3.54643000      -0.11901900      -6.62103200 
H      -3.42591700      -0.11458600      -4.14637600 
