60
Properties=species:S:1:pos:R:3 pbc="F F F"
Mn       0.00000000       0.00000000       0.00000000 
O       0.03383900       2.02939000      -0.08694500 
C       1.10935400       2.87339300      -0.10487000 
C       0.88942200       4.24367200       0.07245600 
C       1.94128600       5.15308700      -0.06945700 
C       3.22088600       4.70273300      -0.40432200 
C       3.46237800       3.33823100      -0.58364000 
C       2.42736700       2.40979900      -0.40659800 
C       2.64567700       0.97700100      -0.68668800 
N       3.33656900       0.48986700      -1.77212700 
C       2.94415800      -0.80572700      -1.86847700 
C       3.15555100      -1.76675100      -2.86157400 
C       2.40679900      -2.97750500      -2.77254800 
C       1.43211900      -3.16793200      -1.74599000 
C       1.27343300      -2.16074000      -0.78168000 
O       0.36013200      -2.02939000       0.08694500 
C       2.10636500      -1.05062000      -0.85033000 
N       2.10000000       0.00000000       0.00000000 
H      -0.10670800       4.60926500       0.28787600 
H       1.75807600       6.21286500       0.05270500 
H       4.02483100       5.41488600      -0.53908800 
H       4.45526800       3.00661300      -0.86123900 
H       3.88109800       1.02641800      -2.48346800 
H       3.82423800      -1.58115300      -3.69153600 
H       2.52818200      -3.73418500      -3.53632300 
H       0.80054000      -4.04646800      -1.74062300 
O      -2.08000000       0.00000000       0.00000000 
H      -3.50051500       0.00000000       0.00000000 
N       0.00000000       0.00000000       2.10000000 
C       1.06257100       0.48622500       2.80919900 
C       1.04196900       0.47598300       4.20018600 
C      -0.07834600      -0.02641600       4.85839100 
C      -0.14879800      -0.05407800       6.26143300 
C      -1.29108200      -0.55385400       6.88959800 
C      -2.36386400      -1.02857600       6.12624200 
C      -2.29826500      -1.00743300       4.72829600 
C      -1.15747100      -0.50731200       4.09045400 
N      -1.07651700      -0.48051500       2.73174400 
H       1.92913300       0.88446500       2.30465300 
H       1.89174200       0.85997700       4.75217000 
H       0.67453200       0.31328800       6.86246700 
H      -1.34641800      -0.57344900       7.97080200 
H      -3.24646800      -1.41312400       6.61967100 
H      -3.13325500      -1.37685800       4.14655500 
N       0.00000000       0.00000000      -2.10000000 
C       0.60620000       0.96615800      -2.86660700 
C       0.59547400       0.91502600      -4.24718200 
C      -0.11243800      -0.08832500      -4.87524000 
C      -0.16472400      -0.15377100      -6.27286300 
C      -0.93277200      -1.13920800      -6.89002200 
C      -1.64746900      -2.05657600      -6.11169400 
C      -1.57809900      -2.00940800      -4.71050000 
C      -0.80269000      -1.02495900      -4.08345000 
N      -0.70934800      -0.95826200      -2.71592900 
H       1.12727800       1.79141800      -2.44639400 
H       1.12172100       1.67381800      -4.81529600 
H       0.37709900       0.56191400      -6.88151000 
H      -0.97969000      -1.18083500      -7.97050300 
H      -2.25389600      -2.80759200      -6.60194600 
H      -2.13644500      -2.72508200      -4.12300800 
