66
Properties=species:S:1:pos:R:3 pbc="F F F"
Mn       0.00000000       0.00000000       0.00000000 
C      -0.14341800       4.30827600      -0.29498700 
C       1.19970600       4.64485200      -0.11482500 
C       2.14389300       3.64554800       0.12530300 
C       1.72322600       2.30977200       0.16100600 
C       2.61538500       1.17650400       0.39009900 
C       3.89652600       1.22303300       0.96565100 
C       4.55494500       0.00987000       1.22596900 
C       3.90562500      -1.20863200       0.96832900 
C       2.62296500      -1.17085500       0.39639700 
C       1.73381900      -2.31638500       0.12627100 
C       2.18982400      -3.64169000       0.07268700 
C       1.27375000      -4.65611800      -0.17038200 
C      -0.06528900      -4.32956500      -0.34076400 
C      -0.46236500      -2.99179100      -0.24982600 
N       0.40738200      -1.99321700       0.00000000 
N       2.10000000       0.00000000       0.00000000 
N       0.39396000       1.99321700       0.00000000 
C      -0.53239100       2.96812400      -0.22707500 
H      -0.87800900       5.08025200      -0.48388300 
H       1.50949300       5.68068000      -0.16562000 
H       3.18375500       3.91333400       0.25550500 
H       4.35881800       2.15861600       1.24910000 
H       5.53332400       0.01391900       1.68845100 
H       4.37658200      -2.14128400       1.24681800 
H       3.23581400      -3.88569900       0.20003100 
H       1.59901400      -5.68670500      -0.22998900 
H      -0.79561500      -5.10429600      -0.53534200 
H      -1.51007700      -2.75218000      -0.37245500 
H      -1.57192100       2.70148200      -0.36098700 
O      -2.08000000       0.00000000       0.00000000 
H      -3.50051500       0.00000000       0.00000000 
N       0.00000000       0.00000000       2.10000000 
C       1.14306000      -0.01395900       2.87133900 
C       1.13303100      -0.01396000       4.25946900 
C      -0.07002800       0.00309300       4.93504200 
C      -0.09684500       0.00455800       6.33640800 
C      -1.31960600       0.02345100       7.00436400 
C      -2.51336300       0.04111100       6.27870300 
C      -2.49013100       0.03898300       4.87661500 
C      -1.26305100       0.01993200       4.19258500 
C      -1.20121600       0.01781600       2.78104600 
H       2.11337800      -0.02307400       2.47145600 
H       2.07433300      -0.02593100       4.79821900 
H       0.82401600      -0.00875000       6.90899100 
H      -1.33798000       0.02595700       8.08851800 
H      -3.45676900       0.05723500       6.80546500 
H      -3.42614700       0.05349000       4.33507700 
H      -2.13714000       0.03181100       2.25775700 
N       0.00000000       0.00000000      -2.10000000 
C       1.18039500       0.01608000      -2.80606500 
C       1.20306000       0.01498600      -4.20132600 
C       0.00496600      -0.00110100      -4.91034900 
C      -0.00659700      -0.00177600      -6.31329100 
C      -1.22312600      -0.01724300      -7.00202400 
C      -2.42955600      -0.03185900      -6.29601300 
C      -2.42596100      -0.03174300      -4.89877900 
C      -1.20844600      -0.01665300      -4.19941200 
C      -1.18065400      -0.01669300      -2.79877400 
H       2.13546300       0.02995800      -2.31765000 
H       2.15503500       0.02741800      -4.71917200 
H       0.92063600       0.00984900      -6.87361700 
H      -1.23051600      -0.01757800      -8.08409600 
H      -3.36955500      -0.04335700      -6.83325000 
H      -3.36999200      -0.04291900      -4.36669700 
H      -2.11814700      -0.03062200      -2.28951400 
