64
Properties=species:S:1:pos:R:3 pbc="F F F"
Mn       0.00000000       0.00000000       0.00000000 
O       0.26488400       3.46517200      -1.58302300 
C       0.74669200       2.47122700      -1.06277900 
O       0.18763100       1.97939100      -0.02772400 
C       1.99679600       1.85076500      -1.61302300 
C       2.64680700       2.42040000      -2.73356700 
C       3.81289700       1.83427800      -3.26525600 
C       4.34617500       0.67137100      -2.69153000 
C       3.68432100       0.12768100      -1.59564600 
N       4.02234300      -0.99316300      -0.86657800 
C       3.02138300      -1.13383700       0.17320200 
C       2.42601000      -2.55309200       0.13271200 
C       3.35873400      -3.61403500       0.20324100 
C       2.95339700      -4.94891900       0.16029100 
C       1.60251500      -5.26489500       0.05747800 
C       0.65672000      -4.24449700       0.00832700 
C       1.04919100      -2.90061800       0.04901600 
O       0.07742100      -1.97939100       0.02772400 
N       2.10000000       0.00000000       0.00000000 
C       2.56339100       0.67019400      -1.06315700 
H       2.25629200       3.31636200      -3.19925500 
H       4.30001800       2.28387600      -4.12072200 
H       5.24287900       0.21318300      -3.08789800 
H       4.85871400      -1.57565600      -1.01692700 
H       4.41901900      -3.41259700       0.28616000 
H       3.69099100      -5.73984600       0.20544200 
H       1.28905300      -6.29928500       0.02342900 
H      -0.39435700      -4.49924800      -0.05752100 
N      -2.10000000       0.00000000       0.00000000 
C      -2.77028100      -0.70799100      -0.95687200 
C      -4.16648300      -0.72496700      -0.98481300 
C      -4.88285900      -0.01568500      -0.01496700 
C      -6.28638800      -0.01583200      -0.00943200 
C      -6.98304100       0.69440700       0.97323200 
C      -6.28630100       1.40761400       1.95321400 
C      -4.88836600       1.41806000       1.95440600 
C      -4.18046600       0.70890800       0.97224800 
C      -2.78051200       0.70498900       0.95238200 
H      -2.21931600      -1.26213500      -1.70384200 
H      -4.67897300      -1.28964200      -1.75439000 
H      -6.84208300      -0.56401500      -0.76068300 
H      -8.06547600       0.69103600       0.97584900 
H      -6.83058100       1.95364500       2.71288700 
H      -4.36294500       1.97564400       2.72080300 
H      -2.23145400       1.26241400       1.69846800 
N       0.00000000       0.00000000       2.10000000 
C      -0.44599400      -1.09940400       2.78473500 
C      -0.45470400      -1.12538400       4.18053000 
C      -0.01556200      -0.00763400       4.89366700 
C      -0.01986500       0.00193000       6.29744100 
C       0.41407700       1.13645700       6.99086400 
C       0.85383500       2.26340800       6.29038300 
C       0.86738600       2.26067400       4.89246900 
C       0.43466300       1.12638400       4.18753300 
C       0.44037800       1.10070000       2.78685600 
H      -0.80320900      -1.96915700       2.25566000 
H      -0.80816200      -2.01047600       4.69588600 
H      -0.35936400      -0.86193500       6.85520000 
H       0.40715100       1.14292800       8.07322200 
H       1.18458200       3.14034800       6.83174400 
H       1.21114500       3.14227900       4.36473500 
H       0.79566600       1.96796500       2.25250800 
O       0.00000000       0.00000000      -2.08000000 
H       0.00000000       0.00000000      -3.50051500 
