50
Properties=species:S:1:pos:R:3 pbc="F F F"
Mn       0.00000000       0.00000000       0.00000000 
O       2.12638000      -3.39565000       0.95297000 
C       1.78600000      -2.31513000       0.49947000 
O       0.59111000      -2.10132000       0.10684000 
C       2.63016000      -1.07314000       0.61112000 
C       3.77991000      -0.96796000       1.39861000 
C       4.30106000       0.30542000       1.63674000 
C       3.60246000       1.42735000       1.17697000 
C       2.43970000       1.24402000       0.40341000 
C       1.55093000       2.37951000       0.09662000 
O       0.24065000       2.10132000      -0.10684000 
O       1.90585000       3.53438000       0.27309000 
N       2.10000000       0.00000000       0.00000000 
H       4.22370000      -1.83694000       1.86717000 
H       5.17603000       0.42763000       2.26187000 
H       3.93051000       2.41551000       1.47431000 
N      -2.10000000       0.00000000       0.00000000 
C      -2.84025000       0.30793000       1.11213000 
C      -4.22734000       0.29542000       1.07165000 
C      -4.86525000       0.01171000      -0.12704000 
C      -6.26450000       0.00726000      -0.21526000 
C      -6.88220000      -0.24688000      -1.44092000 
C      -6.10683000      -0.49591000      -2.57838000 
C      -4.70689000      -0.50632000      -2.49210000 
C      -4.07905000      -0.25783000      -1.26511000 
N      -2.71943000      -0.26675000      -1.15726000 
H      -2.38007000       0.57309000       2.04514000 
H      -4.79225000       0.52363000       1.96817000 
H      -6.87591000       0.20706000       0.65835000 
H      -7.96329000      -0.24301000      -1.50960000 
H      -6.59225000      -0.68008000      -3.52743000 
H      -4.11772000      -0.69891000      -3.37928000 
N       0.00000000       0.00000000       2.10000000 
C      -0.60418000      -1.00784000       2.79920000 
C      -0.58818000      -1.00065000       4.19269000 
C       0.08556000       0.02415000       4.85958000 
C       0.14168000       0.07471000       6.26002000 
C       0.84874000       1.10462000       6.89231000 
C       1.50215000       2.08040000       6.13271000 
C       1.44081000       2.04132000       4.73580000 
C       0.73158000       1.01665000       4.09776000 
N       0.65199000       0.97410000       2.74221000 
H      -1.12531000      -1.79539000       2.27146000 
H      -1.09289000      -1.78704000       4.74063000 
H      -0.35562000      -0.67647000       6.86159000 
H       0.89254000       1.14276000       7.97321000 
H       2.05180000       2.87022000       6.62582000 
H       1.94561000       2.80047000       4.15183000 
O       0.00000000       0.00000000      -2.08000000 
H       0.00000000       0.00000000      -3.50052000 
