60
Properties=species:S:1:pos:R:3 pbc="F F F"
Ru       0.00000000       0.00000000       0.00000000 
O      -0.33250400      -1.91349900       0.09193200 
C       0.70210700      -2.80776200       0.22826400 
C       0.40318800      -4.11054900       0.64149600 
C       1.40606600      -5.08197900       0.70712000 
C       2.71845800      -4.76658100       0.34537400 
C       3.04304000      -3.47316900      -0.07125800 
C       2.05903000      -2.47753800      -0.10505600 
C       2.37986000      -1.13060800      -0.60624200 
N       2.89166100      -0.86779400      -1.85878500 
C       2.52750300       0.42127600      -2.10664100 
C       2.57283500       1.19759100      -3.27500600 
C       1.75436300       2.36880800      -3.31274500 
C       0.87770300       2.69464000      -2.23030100 
C       0.89612200       1.88622400      -1.07784500 
O       0.09695400       1.91349900      -0.09193200 
C       1.81358800       0.83124300      -1.04002100 
N       2.10000000       0.00000000       0.00000000 
H      -0.61587000      -4.37794600       0.89160000 
H       1.16082500      -6.08903500       1.01893500 
H       3.48501500      -5.52992100       0.37966100 
H       4.06190600      -3.24588900      -0.36014900 
H       3.25544800      -1.54377200      -2.56648200 
H       3.12019400       0.87499900      -4.15083800 
H       1.71990600       2.96374500      -4.21611800 
H       0.18242600       3.51997200      -2.31374400 
N      -2.10000000       0.00000000       0.00000000 
C      -2.80563700      -0.83174800      -0.82330600 
C      -4.19753600      -0.81233300      -0.81303600 
C      -4.85757000       0.07140200       0.03862000 
C      -6.25860600       0.12645900       0.09213100 
C      -6.88832300       1.02500500       0.95891400 
C      -6.12492100       1.86968100       1.77262600 
C      -4.72731200       1.81861800       1.72553600 
C      -4.09068700       0.92057600       0.86226600 
N      -2.73301700       0.85528500       0.81079800 
H      -2.28743300      -1.51407100      -1.48370300 
H      -4.74904000      -1.48037000      -1.46429200 
H      -6.86181200      -0.52162100      -0.53307100 
H      -7.96920300       1.06803100       0.99891100 
H      -6.61808200       2.56348100       2.44104600 
H      -4.14381900       2.47453200       2.35971700 
N       0.00000000       0.00000000       2.10000000 
C      -0.97749900      -0.64038500       2.80834400 
C      -0.96119100      -0.62576000       4.19932600 
C       0.07404300       0.03207600       4.85880300 
C       0.14068600       0.06853300       6.25911500 
C       1.20007100       0.72794800       6.88874600 
C       2.19346400       1.35166500       6.12575500 
C       2.13055200       1.32365500       4.72772200 
C       1.07286700       0.66739600       4.09047900 
N       0.99574000       0.63035400       2.73255000 
H      -1.77568400      -1.16016000       2.29734900 
H      -1.74632900      -1.13027500       4.75051000 
H      -0.62133900      -0.41240300       6.86238800 
H       1.25196500       0.75451600       7.97011200 
H       3.01273400       1.85743100       6.61950700 
H       2.90391300       1.80767100       4.14498400 
O       0.00000000       0.00000000      -2.08000000 
H       0.00000000       0.00000000      -3.50051500 
