46
Properties=species:S:1:pos:R:3 pbc="F F F"
Ru       0.00000000       0.00000000       0.00000000 
O       0.12545100       2.02551200       0.00000000 
C       1.19803700       2.86577200       0.06308200 
C       0.99744200       4.23590400      -0.13895600 
C       2.05742600       5.13473000       0.01559900 
C       3.32336600       4.67306700       0.38773600 
C       3.54136900       3.30862300       0.59482200 
C       2.49599000       2.39391100       0.40762000 
C       2.68384300       0.96245500       0.67181000 
N       3.53621700       0.38193500       1.58885600 
C       3.06022900      -0.90179400       1.72082400 
C       3.32946800      -1.89996500       2.66159100 
C       2.45309900      -3.02930000       2.69109300 
C       1.33786700      -3.13764500       1.79944300 
C       1.11547400      -2.11597000       0.86202200 
O       0.18615800      -2.02551200       0.00000000 
C       2.00898100      -1.03406200       0.88268900 
N       2.10000000       0.00000000       0.00000000 
H       0.01389500       4.60782600      -0.39500600 
H       1.89302100       6.19384200      -0.13465500 
H       4.13593900       5.37493500       0.52364000 
H       4.52556600       2.96756300       0.89196900 
H       4.22178100       0.84919300       2.22272400 
H       4.12498100      -1.79236300       3.38824100 
H       2.61433700      -3.80536100       3.42780200 
H       0.67501300      -3.99183900       1.84925300 
C      -4.38756600      -0.30942100      -0.57926900 
C      -3.06787500      -0.06337200      -0.94988100 
N      -2.10000000       0.00000000       0.00000000 
C      -2.38693100      -0.18252000       1.32510600 
C      -1.33692200      -0.13131000       2.38503700 
N      -0.00000600       0.00000000       2.10000000 
C       0.93000400       0.05833500       3.07691900 
C       0.52637500      -0.09700500       4.40559900 
C      -0.81705600      -0.31617200       4.68551800 
N      -1.72095200      -0.31506300       3.67670800 
N      -3.67705300      -0.41891800       1.69214000 
C      -4.67462100      -0.48529200       0.77263900 
H      -5.17158400      -0.36105000      -1.32352600 
H      -2.81372300       0.08083700      -1.99121200 
H       1.88298600       0.46584100       3.04894500 
H       1.23785900       0.00159600       5.21668900 
H      -1.15075600      -0.42763400       5.70849300 
H      -5.69017900      -0.67650200       1.09245900 
O       0.00000000       0.00000000      -2.08000000 
H       0.00000000       0.00000000      -3.50051500 
