59
Properties=species:S:1:pos:R:3 pbc="F F F"
Ru       0.00000000       0.00000000       0.00000000 
O       1.78685100       3.46550300       0.77595000 
C       1.51002700       2.33974000       0.39505800 
O       0.31775700       2.04360100       0.04128900 
C       2.47583900       1.17103500       0.55443700 
C       3.65911500       1.23905600       1.30397400 
C       4.36722200       0.05334900       1.55114300 
C       3.83056400      -1.17305200       1.13481600 
C       2.63054400      -1.15600800       0.41056300 
C       1.80569200      -2.31109600       0.07042500 
C       2.29034400      -3.61408500      -0.07821000 
C       1.39168600      -4.63192900      -0.40027500 
C       0.03065900      -4.34557700      -0.54016300 
C      -0.42257000      -3.03716300      -0.34646200 
N       0.45825200      -2.04360100      -0.04128900 
N       2.10000000       0.00000000       0.00000000 
H       4.00112800       2.17515200       1.72675600 
H       5.27179700       0.07567300       2.14463000 
H       4.30209700      -2.10077900       1.43053100 
H       3.34469500      -3.83547800       0.02567600 
H       1.74918700      -5.64344100      -0.54419900 
H      -0.66797300      -5.13261500      -0.79195300 
H      -1.47548400      -2.80979800      -0.44510400 
O      -2.08000000       0.00000000       0.00000000 
H      -3.50051500       0.00000000       0.00000000 
N       0.00000000       0.00000000       2.10000000 
C       0.78027100      -0.84153600       2.85705300 
C       0.77233600      -0.82438500       4.24247200 
C      -0.07336300       0.04543300       4.90791100 
C      -0.10040000       0.06280300       6.30905200 
C      -0.97689100       0.91632200       6.97487300 
C      -1.82655800       1.75283500       6.24642700 
C      -1.79646000       1.75025300       4.84346500 
C      -0.91539400       0.89549200       4.16002200 
C      -0.85104500       0.86209800       2.74764200 
H       1.42530200      -1.56784900       2.42985500 
H       1.42191600      -1.50045100       4.78628100 
H       0.55057800      -0.58722400       6.88401200 
H      -0.99879200       0.92237200       8.05732700 
H      -2.51023000       2.40703400       6.77262500 
H      -2.46312100       2.40531000       4.29830500 
H      -1.48802100       1.51452300       2.16515700 
N       0.00000000       0.00000000      -2.10000000 
C       1.07948000      -0.47873800      -2.79645700 
C       1.09895900      -0.48411900      -4.19026900 
C      -0.00403100      -0.00291500      -4.89484800 
C      -0.01591600      -0.00146600      -6.29788400 
C      -1.13341600       0.47818100      -6.98625400 
C      -2.24098500       0.95777000      -6.28083400 
C      -2.23571200       0.96465600      -4.88225500 
C      -1.11799200       0.48529500      -4.18167100 
C      -1.08729100       0.48241800      -2.77886500 
H       1.94399600      -0.86465400      -2.28512400 
H       1.96990900      -0.86607500      -4.71005200 
H       0.83429800      -0.37095900      -6.85889300 
H      -1.14122100       0.47650600      -8.06863100 
H      -3.10454100       1.32546200      -6.81932200 
H      -3.10192100       1.33996000      -4.35100800 
H      -1.93549800       0.86789200      -2.23430200 
