55
Properties=species:S:1:pos:R:3 pbc="F F F"
Ru       0.00000000       0.00000000       0.00000000 
C      -4.08691200      -0.69119400      -0.41503800 
C      -4.10686600       0.66884400      -0.39814800 
C      -2.79735300       1.06434400      -0.22458900 
C      -2.45786300       2.32450500      -0.01591900 
C      -1.08308000       2.71205400       0.23004700 
C      -0.71498500       4.02701200       0.40092200 
C       0.64289500       4.03507300       0.43114900 
C       1.03597400       2.72470300       0.27789200 
N      -0.02028500       1.85986400       0.21949800 
C       2.43524200       2.37487500       0.07614000 
C       2.82174100       1.13680500      -0.17894300 
C       4.21049800       0.74120600      -0.32636800 
C       4.18132200      -0.61859400      -0.34518200 
C       2.77264900      -1.00153300      -0.23474100 
N       1.95833000       0.00870500      -0.21949800 
C       2.37592400      -2.39156200      -0.03295700 
C       1.11998800      -2.75879800       0.19614200 
C       0.71833300      -4.14712400       0.32277100 
C      -0.63884200      -4.11704400       0.28738100 
C      -1.01710700      -2.70772100       0.17552200 
N      -0.01204200      -1.88551700       0.21949800 
C      -2.39753600      -2.31495000      -0.06942000 
C      -2.76758600      -1.05474700      -0.24866200 
N      -1.92600300       0.01694800      -0.21949800 
H      -4.95043200      -1.34227100      -0.47391300 
H      -4.98622500       1.29950500      -0.44096100 
H      -3.22423200       3.09687700      -0.00995600 
H      -1.36418000       4.89248900       0.43698100 
H       1.27995900       4.90828900       0.49318300 
H       3.18352800       3.16224500       0.12687600 
H       5.09287200       1.36680600      -0.35818900 
H       5.04122500      -1.27338600      -0.40052200 
H       3.15034600      -3.15374700      -0.06404000 
H       1.34104200      -5.03093700       0.37115700 
H      -1.29492800      -4.97721800       0.31143500 
H      -3.15046400      -3.09987500      -0.09147000 
N       0.00000000       0.00000000       2.10000000 
C       0.99201700      -0.61268700       2.81320800 
C       0.97027600      -0.60185300       4.20324800 
C      -0.06866700       0.05229100       4.86000900 
C      -0.13054800       0.09662200       6.26003500 
C      -1.18152500       0.76998900       6.88876000 
C      -2.17089600       1.39866300       6.12423200 
C      -2.11632000       1.35397500       4.72594000 
C      -1.06768100       0.68033400       4.08985500 
N      -0.99941900       0.62700600       2.73205700 
H       1.80176200      -1.11374700       2.31227700 
H       1.76012700      -1.09619100       4.75636600 
H       0.63063000      -0.38472800       6.86306800 
H      -1.22762000       0.80548400       7.96964400 
H      -2.98005300       1.92065900       6.61752400 
H      -2.88594100       1.84311500       4.14231400 
O       0.00000000       0.00000000      -2.08000000 
H       0.00000000       0.00000000      -3.50051500 
