52
Properties=species:S:1:pos:R:3 pbc="F F F"
Co       0.09617766       0.05339038       0.29203964 
O       1.99916842      -3.42775814       0.49089913 
C       1.61900315      -2.24641902       0.43596883 
O       0.36541904      -1.88021403       0.38094485 
C       2.59604819      -1.09901922       0.43079105 
C       3.98670220      -1.14369785       0.47395183 
C       4.68154023       0.07338076       0.45311510 
C       3.99759535       1.29156853       0.39651846 
C       2.59912533       1.26701819       0.35949558 
C       1.64125003       2.38696616       0.30902353 
C       1.97010461       3.74016273       0.30769978 
C       0.94178161       4.68402714       0.25011007 
C      -0.38331161       4.25289852       0.19560812 
C      -0.65288043       2.88389085       0.20432221 
N       0.33379961       1.97934968       0.26146371 
N       1.96561968       0.07997072       0.37576277 
H       4.50425648      -2.09451436       0.51955742 
H       5.76546230       0.07321261       0.48233765 
H       4.53487110       2.23219088       0.38113923 
H       3.00884010       4.04568829       0.35145385 
H       1.17790263       5.74239886       0.24773578 
H      -1.20601160       4.95630712       0.14789972 
H      -1.65727989       2.47879691       0.16765967 
O      -1.77793846       0.07068624       0.14042202 
H      -2.07062834      -0.36825536       0.96124975 
N      -0.08665546       0.03671490       2.26366300 
C       0.74837318       0.67449422       3.12789270 
C       0.58764308       0.57212164       4.49429199 
C      -0.46655348      -0.21122598       4.99516841 
C      -0.74624826      -0.40600543       6.37300786 
C      -1.81433770      -1.19360108       6.74287466 
C      -2.64321635      -1.81480120       5.76593621 
C      -2.40054820      -1.64741151       4.42206656 
C      -1.30298566      -0.84051880       4.01515939 
N      -1.08314211      -0.69622211       2.68198546 
H       1.54007793       1.26793913       2.69444962 
H       1.26779254       1.09261572       5.15952593 
H      -0.11210417       0.07073891       7.11313651 
H      -2.03380170      -1.34707851       7.79444958 
H      -3.47618217      -2.42832647       6.09279930 
H      -3.02011734      -2.11357000       3.66358788 
N       0.13351311      -0.08626714      -1.67424021 
C       0.85107769       0.70294994      -2.50004765 
C       0.84127923       0.52991975      -3.88060721 
C       0.06827943      -0.49201519      -4.43207815 
C      -0.67212982      -1.30652847      -3.57421942 
C      -0.61772531      -1.07622528      -2.20346278 
H       1.44153025       1.49160563      -2.05372397 
H       1.43451165       1.19281411      -4.49967504 
H       0.04362202      -0.65025990      -5.50508471 
H      -1.28863665      -2.11500144      -3.94978899 
H      -1.17779813      -1.67577005      -1.49955468 
