59
Properties=species:S:1:pos:R:3 pbc="F F F"
Co       0.11781234      -0.17938643      -0.00771834 
C       0.21307704      -4.42014797      -0.22890376 
C       1.56849942      -4.64912887      -0.46307773 
C       2.44991707      -3.56640945      -0.51213160 
C       1.94531435      -2.27985913      -0.33661851 
C       2.74729047      -1.04653250      -0.28265369 
C       4.13470360      -0.90700994      -0.36777794 
C       4.68049473       0.37214814      -0.22600993 
C       3.86225588       1.48563112      -0.01395439 
C       2.48017940       1.28843719       0.04907942 
C       1.41279331       2.29220717       0.20017107 
C       1.60786286       3.66041270       0.37922447 
C       0.49133743       4.49429349       0.46917719 
C      -0.78563019       3.94222904       0.37494533 
C      -0.91754354       2.56350324       0.20581514 
N       0.15377597       1.76412908       0.11939841 
N       1.98154693       0.04324122      -0.07910013 
N       0.60874887      -2.06869411      -0.13626725 
C      -0.23452354      -3.10803297      -0.07128768 
H      -0.49761784      -5.23584881      -0.16872118 
H       1.94234776      -5.65818593      -0.59745964 
H       3.51051635      -3.71699229      -0.67469005 
H       4.77081152      -1.76764502      -0.53392652 
H       5.75520389       0.50309822      -0.28376742 
H       4.28727998       2.47648170       0.09029196 
H       2.61213539       4.06158616       0.44551535 
H       0.62213498       5.56164172       0.60885330 
H      -1.67492491       4.55830623       0.43469153 
H      -1.88386386       2.07930644       0.14029640 
H      -1.27501305      -2.86073903       0.10582640 
O      -1.73478170      -0.47062061       0.09952954 
H      -2.14981436      -0.03309585      -0.66173120 
N       0.13917497      -0.23944081       1.97516323 
C       1.00155373      -1.02724523       2.67873727 
C       0.98717554      -1.06351394       4.05622326 
C       0.05550772      -0.26482226       4.74252511 
C      -0.07550657      -0.20535117       6.15440949 
C      -1.02687215       0.62042694       6.71267108 
C      -1.87998641       1.41543337       5.89652049 
C      -1.77848407       1.38155140       4.52462798 
C      -0.80552073       0.53630803       3.92350408 
N      -0.73465424       0.52665846       2.56476432 
H       1.69475071      -1.62521664       2.10660764 
H       1.68388985      -1.70188716       4.58827421 
H       0.57721664      -0.81359870       6.77198069 
H      -1.13307786       0.67026999       7.79150044 
H      -2.61850390       2.05444203       6.36919146 
H      -2.42057280       1.97954792       3.88695193 
N      -0.01654263      -0.12390678      -1.98845530 
C      -0.81379931      -1.02245050      -2.60956992 
C      -0.95891586      -1.05323757      -3.99231372 
C      -0.26190808      -0.12992596      -4.77175407 
C       0.56082959       0.79551141      -4.12969117 
C       0.66080091       0.76858329      -2.74263254 
H      -1.34625798      -1.71723870      -1.97399747 
H      -1.61154300      -1.79563740      -4.43670324 
H      -0.35686489      -0.13166195      -5.85229267 
H       1.12504211       1.53680048      -4.68341289 
H       1.29471219       1.47833951      -2.22954724 
