53
Properties=species:S:1:pos:R:3 pbc="F F F"
Co       0.11709451       0.14583480       0.21898970 
O       1.70745890      -3.49048960       0.41005874 
C       1.43197492      -2.27995475       0.35945177 
O       0.21729120      -1.80668038       0.27643390 
C       2.50206319      -1.22040961       0.39190695 
C       3.88096344      -1.38383131       0.48777284 
C       4.67701306      -0.23063932       0.50560780 
C       4.10168661       1.04101993       0.42714915 
C       2.70890263       1.13633262       0.33146732 
C       1.85599596       2.33423866       0.23356948 
C       2.30479924       3.65240529       0.20713456 
C       1.36693701       4.68255793       0.10748616 
C       0.01009919       4.37004690       0.03415404 
C      -0.38092005       3.03092476       0.06400061 
N       0.51850090       2.04242088       0.16331724 
N       1.97651572       0.00817969       0.31910851 
H       4.31281442      -2.37567772       0.54778635 
H       5.75471891      -0.32300941       0.58147057 
H       4.71753138       1.93237541       0.44020387 
H       3.36611549       3.86325750       0.26404718 
H       1.69694589       5.71525449       0.08616752 
H      -0.74541151       5.14239986      -0.04607277 
H      -1.41847057       2.72397269       0.00539442 
O      -1.76069766       0.27241611       0.07349860 
H      -2.08157497       0.68734484       0.89091535 
N      -0.06035302       0.14489020       2.18672405 
C       0.60219196       0.99884954       3.03324328 
C       0.43371560       0.95756448       4.39501285 
C      -0.44916869       0.01175957       4.97676617 
C      -0.68394988      -0.09323120       6.37184082 
C      -1.56192161      -1.04550747       6.85012965 
C      -2.23811700      -1.92798881       5.96728474 
C      -2.03049752      -1.85022390       4.60663965 
C      -1.13239716      -0.87807765       4.08869087 
C      -0.89245040      -0.75971303       2.70066352 
H       1.26929811       1.71926823       2.58177936 
H       0.97941160       1.65599493       5.02039079 
H      -0.16761201       0.58042675       7.04857932 
H      -1.74166989      -1.12476415       7.91784473 
H      -2.92241831      -2.66644931       6.37221637 
H      -2.54173046      -2.51830822       3.92023193 
H      -1.39389040      -1.41627576       1.99956088 
N       0.13850988       0.00651480      -1.74914054 
C       0.96722615       0.68674001      -2.56742677 
C       0.93679561       0.52477990      -3.94914033 
C       0.02501073      -0.37115372      -4.50798307 
C      -0.82869815      -1.07449339      -3.65706928 
C      -0.74585087      -0.86181509      -2.28504785 
H       1.66760955       1.37357385      -2.11084332 
H       1.62239580       1.09684804      -4.56344123 
H      -0.01843081      -0.51876117      -5.58191529 
H      -1.55393177      -1.78350259      -4.03929196 
H      -1.38832585      -1.38146210      -1.58742721 
