48
Properties=species:S:1:pos:R:3 pbc="F F F"
Co       0.00000000       0.00000000       0.00000000 
O       0.67672500       3.85335900       0.82655800 
C       1.02893200       2.71388500       0.56610500 
O       0.23265100       1.93933800      -0.06181300 
C       2.35845900       2.19702400       1.02798800 
C       3.21432500       2.98166500       1.83533000 
C       4.43365900       2.45387700       2.31533500 
C       4.81542200       1.13885400       1.99994500 
C       3.96058500       0.39209400       1.19549100 
N       4.10175300      -0.91697100       0.75960900 
C       2.98612900      -1.16084100      -0.13571700 
C       2.35000100      -2.55574000       0.01381400 
C       3.25602300      -3.63975000      -0.03057400 
C       2.82049000      -4.96267500       0.03977900 
C       1.46415000      -5.24614400       0.14617100 
C       0.53842000      -4.20684200       0.17123900 
C       0.95298300      -2.87037700       0.09761800 
O      -0.02144400      -1.93933800       0.06181300 
N       2.10000000       0.00000000       0.00000000 
C       2.79497800       0.89071100       0.71302000 
H       2.93634800       3.99061900       2.11221400 
H       5.07221800       3.06163900       2.94309400 
H       5.73890700       0.71846200       2.37624700 
H       4.93308300      -1.50816400       0.90511500 
H       4.31962700      -3.46673100      -0.13164800 
H       3.53965900      -5.77115100       0.00188300 
H       1.12783400      -6.27396700       0.19243100 
H      -0.51735900      -4.44197800       0.22958000 
C      -4.40249700      -0.16258700      -0.57522400 
C      -3.06784700      -0.02997300      -0.95138100 
N      -2.10000000       0.00000000       0.00000000 
C      -2.39986600      -0.10468100       1.32969900 
C      -1.34534100      -0.07998900       2.38659300 
N       0.00000000       0.00000000       2.10000000 
C       0.93140400       0.02888300       3.06616400 
C       0.53725700      -0.02316700       4.40230900 
C      -0.82212300      -0.10334900       4.69685900 
N      -1.73260500      -0.13202700       3.69025600 
N      -3.70352400      -0.23033300       1.70271500 
C      -4.70280700      -0.26073800       0.78205900 
H      -5.18830000      -0.18818400      -1.31932800 
H      -2.80284400       0.05161600      -1.99659700 
H       1.97827600       0.06159700       2.86124300 
H       1.27306000      -0.00842200       5.19604700 
H      -1.15430700      -0.14748000       5.72539900 
H      -5.72927500      -0.36388100       1.10579700 
O       0.00000000       0.00000000      -2.08000000 
H       0.00000000       0.00000000      -3.50051500 
