40
Properties=species:S:1:pos:R:3 pbc="F F F"
Co       0.00000000       0.00000000       0.00000000 
O       1.76213700      -3.54215400       0.36841700 
C       1.45195200      -2.38400500       0.14026200 
O       0.22589900      -2.08808900      -0.08728900 
C       2.41719800      -1.23251400       0.45192300 
C       3.52243900      -1.40851100       1.29912500 
C       4.19205700      -0.27666400       1.77676600 
C       3.68336200       0.99273800       1.48462900 
C       2.57340800       1.08634000       0.63448400 
C       1.82229700       2.30096700       0.39739500 
O       0.51962700       2.08808900       0.08728900 
O       2.21602900       3.40226400       0.74725400 
N       2.10000000       0.00000000       0.00000000 
H       3.81790200      -2.39224100       1.64070300 
H       5.02926900      -0.38442000       2.45399700 
H       4.10928500       1.87064700       1.95357300 
N      -2.10000000       0.00000000       0.00000000 
C      -2.77801700      -0.99394800      -0.64504000 
C      -4.17461300      -1.00670800      -0.65026900 
C      -4.86984900       0.00658900       0.01011900 
C      -4.16434300       1.01831400       0.66445700 
C      -2.76651800       0.99766800       0.64924100 
H      -2.23260400      -1.77581700      -1.15569000 
H      -4.71197500      -1.79554200      -1.16178100 
H      -5.95180600       0.00888700       0.01340600 
H      -4.69445400       1.80850700       1.17965200 
H      -2.21362700       1.77751500       1.15229900 
N       0.00000000       0.00000000       2.10000000 
C      -0.29523700      -1.18579500       2.72711600 
C      -0.31670300      -1.28367400       4.12311900 
C      -0.04058800      -0.16029100       4.89574700 
C       0.23726100       1.04462700       4.26890100 
C       0.24402400       1.10864200       2.87620900 
H      -0.52689200      -2.07037300       2.15882800 
H      -0.55097600      -2.22402900       4.60381200 
H      -0.05153700      -0.21838700       5.97642700 
H       0.44302200       1.93297100       4.85380700 
H       0.43963600       2.07025500       2.44805300 
O       0.00000000       0.00000000      -2.08000000 
H       0.00000000       0.00000000      -3.50051500 
