40
Properties=species:S:1:pos:R:3 pbc="F F F"
Co       0.04125665      -0.04423619       0.39242237 
O       1.83185882      -3.56852986       0.63112877 
C       1.48634467      -2.37669490       0.56770165 
O       0.24843283      -1.97804938       0.43592655 
C       2.48500437      -1.25182282       0.62816662 
C       3.87435974      -1.30567219       0.72269920 
C       4.58366152      -0.09699528       0.72184827 
C       3.91320026       1.12883567       0.61979439 
C       2.52174923       1.10880677       0.53377251 
C       1.55271281       2.25550356       0.40211660 
O       0.29624559       1.88311801       0.37413313 
O       1.93214215       3.43542729       0.33712222 
N       1.87743093      -0.06311130       0.55503744 
H       4.38136180      -2.26108165       0.78866286 
H       5.66555481      -0.11136504       0.79302487 
H       4.44926886       2.07038267       0.60395741 
N      -1.89506180      -0.01094719       0.16587485 
C      -2.48898658      -0.95726463      -0.58857991 
C      -3.86715159      -0.97989311      -0.78121540 
C      -4.65107689       0.00828841      -0.18270567 
C      -4.02754370       0.98742774       0.59395624 
C      -2.64600524       0.94465985       0.75160639 
H      -1.83343257      -1.69435389      -1.03560881 
H      -4.30713717      -1.76031443      -1.39136663 
H      -5.72741549       0.01559669      -0.31874558 
H      -4.59474551       1.77472648       1.07689325 
H      -2.11523482       1.67742276       1.34846531 
N      -0.23873213      -0.08274883       2.37142951 
C      -0.97537261      -1.09536270       2.88068016 
C      -1.24727416      -1.20203379       4.24036412 
C      -0.74493243      -0.23426084       5.11209795 
C       0.01205090       0.81156076       4.58386179 
C       0.24155345       0.85660720       3.21156499 
H      -1.34250807      -1.82663387       2.17135751 
H      -1.84432804      -2.03306412       4.59795457 
H      -0.94096714      -0.29318662       6.17749261 
H       0.42420340       1.59034060       5.21507773 
H       0.81718635       1.66225575       2.77621505 
O       0.16294164      -0.08900932      -1.48812952 
H       1.05645015       0.19752972      -1.73962939 
