61
Properties=species:S:1:pos:R:3 pbc="F F F"
Co       0.00000000       0.00000000       0.00000000 
O      -0.22005900       1.98244300      -0.12999400 
C       0.82889100       2.83841200       0.08689000 
C       0.56029600       4.14503100       0.50782700 
C       1.60194500       5.06535900       0.66373100 
C       2.92093200       4.69289800       0.38464500 
C       3.21137200       3.39296200      -0.03922500 
C       2.18164900       2.45372000      -0.16218700 
C       2.44431200       1.09395500      -0.63958100 
N       2.92455600       0.78356800      -1.89320000 
C       2.55034300      -0.51004700      -2.08876400 
C       2.61409500      -1.36165000      -3.20001000 
C       1.86317600      -2.58267800      -3.13381700 
C       1.01499400      -2.87338400      -2.01393300 
C       1.00746200      -1.97739100      -0.93086500 
O       0.31601000      -1.98244300       0.12999400 
C       1.85859100      -0.88195600      -0.99901600 
N       2.10000000       0.00000000       0.00000000 
H      -0.45991600       4.45357400       0.69841600 
H       1.38415100       6.07576000       0.98485700 
H       3.71931600       5.41562800       0.49253900 
H       4.23522600       3.11613200      -0.25849300 
H       3.30835900       1.42985100      -2.61838500 
H       3.15269100      -1.08343800      -4.09570100 
H       1.86245900      -3.25254500      -3.98420700 
H       0.38589900      -3.75357400      -2.00793200 
N      -2.10000000       0.00000000       0.00000000 
C      -2.80669100       0.84569600      -0.80829200 
C      -4.19837300       0.82505600      -0.79683000 
C      -4.85869700      -0.07209600       0.04225400 
C      -6.25830600      -0.12845100       0.09479200 
C      -6.88767700      -1.04042400       0.94741000 
C      -6.12317200      -1.89684500       1.74782900 
C      -4.72605700      -1.84567300       1.69927900 
C      -4.08926000      -0.93381700       0.84966200 
N      -2.73323400      -0.87046700       0.79525000 
H      -2.29179600       1.53668800      -1.46054500 
H      -4.75100600       1.50279200      -1.43733000 
H      -6.86299600       0.52943000      -0.51959700 
H      -7.96838000      -1.08318600       0.98868000 
H      -6.61597700      -2.60120100       2.40571700 
H      -4.14157000      -2.51128500       2.32366200 
N       0.00000000       0.00000000       2.10000000 
C      -0.98429000       0.66033700       2.78386300 
C      -1.00708000       0.67348600       4.17937800 
C       0.00455100       0.02040600       4.88983900 
C       0.01512900       0.01796100       6.29369900 
C       1.04372500      -0.63164900       6.98419900 
C       2.06273000      -1.28041400       6.28118800 
C       2.05750600      -1.28895400       4.88303600 
C       1.02787700      -0.64268600       4.18029500 
C       0.99939300      -0.64232100       2.78027700 
H      -1.76495500       1.18063300       2.24781800 
H      -1.80383300       1.19409000       4.69621500 
H      -0.76563200       0.51715200       6.85305200 
H       1.05117100      -0.63058600       8.06613100 
H       2.85829200      -1.77853700       6.82043100 
H       2.85309300      -1.79768300       4.35312400 
H       1.77578400      -1.15677800       2.23305500 
O       0.00000000       0.00000000      -2.08000000 
H       0.00000000       0.00000000      -3.50051500 
