50
Properties=species:S:1:pos:R:3 pbc="F F F"
Co       0.05129766       0.04585962      -0.03228814 
C      -0.34196200       4.28594383      -0.01695894 
C       0.98792163       4.67731548      -0.15978721 
C       1.97963951       3.69979443      -0.25113399 
C       1.61252429       2.35691161      -0.19541497 
C       2.54021521       1.22207594      -0.28818424 
C       3.92905112       1.24424192      -0.43777332 
C       4.60672816       0.02494877      -0.51970574 
C       3.91490988      -1.18755459      -0.45808094 
C       2.52606142      -1.15292488      -0.30741225 
C       1.58809639      -2.27984349      -0.22149205 
C       1.94090908      -3.62489085      -0.31098759 
C       0.94224403      -4.59499521      -0.21617273 
C      -0.37951024      -4.19453181      -0.03106643 
C      -0.67125479      -2.83287086       0.04878930 
N       0.28715226      -1.89885242      -0.04768548 
N       1.89925011       0.03747451      -0.21979098 
N       0.30434020       1.98482468      -0.05662930 
C      -0.64838871       2.92621620       0.03052774 
H      -1.14306294       5.01147923       0.05723874 
H       1.25440209       5.72748084      -0.20122588 
H       3.02183973       3.97166692      -0.36583354 
H       4.46557621       2.18364482      -0.49028660 
H       5.68473710       0.01959659      -0.63464543 
H       4.44106685      -2.13191192      -0.52508229 
H       2.97725556      -3.90461010      -0.45571084 
H       1.19752911      -5.64642023      -0.28625000 
H      -1.18551054      -4.91394223       0.04998393 
H      -1.68722893      -2.48699927       0.18877499 
H      -1.67052762       2.58675333       0.13736339 
C      -4.14677283       0.04116533      -0.44733028 
C      -2.79322511       0.04085690      -0.76438449 
N      -1.87374045       0.05148314       0.21629819 
C      -2.29783226       0.06301722       1.50116376 
C      -1.19999620       0.06868108       2.48897829 
N       0.03740083       0.05177477       1.93923297 
C       1.09652213       0.04845229       2.76817721 
C       0.91242502       0.06596640       4.14575485 
C      -0.39799068       0.08759634       4.61735512 
N      -1.45994643       0.08816601       3.79290691 
N      -3.57035867       0.06718000       1.88512583 
C      -4.49027323       0.05585618       0.90360632 
H      -4.90009799       0.03148976      -1.22473942 
H      -2.41001955       0.03434972      -1.77785740 
H       2.08240134       0.03186339       2.32066235 
H       1.76072538       0.06289286       4.81836264 
H      -0.61343395       0.10423005       5.68001289 
H      -5.52808763       0.05858387       1.21862424 
O      -0.19227818       0.02525076      -1.89113021 
H       0.62683464       0.33463209      -2.31303300 
