57
Properties=species:S:1:pos:R:3 pbc="F F F"
Co      -0.11112897      -0.02813589       0.25083078 
O       1.42637756      -3.65627925       0.62598082 
C       1.16559521      -2.44583380       0.52680795 
O      -0.04356644      -1.96218746       0.42408694 
C       2.24269578      -1.39657653       0.52304347 
C       3.61637891      -1.56691586       0.66278696 
C       4.42212546      -0.42077144       0.64981581 
C       3.85980567       0.84917024       0.49564820 
C       2.47059804       0.95351956       0.35491611 
C       1.64036541       2.14774505       0.14059335 
C       2.12586616       3.44598375       0.00270537 
C       1.22800325       4.48108659      -0.26361286 
C      -0.12599985       4.18519355      -0.40446687 
C      -0.55057154       2.86479270      -0.25464187 
N       0.30390972       1.87238488       0.03427508 
N       1.73113657      -0.16764221       0.37621539 
H       4.03511987      -2.55922731       0.78068942 
H       5.49652900      -0.51717982       0.75953933 
H       4.48454292       1.73405027       0.48238160 
H       3.18810482       3.63899027       0.09337762 
H       1.58717882       5.49840862      -0.37259603 
H      -0.85580877       4.95303695      -0.63177584 
H      -1.59215053       2.59808960      -0.37614012 
N      -2.08362449      -0.00075637       0.17073237 
C      -2.83707575       0.82581018       0.95458754 
C      -4.21425928       0.79288106       0.92657900 
C      -4.84743957      -0.12914387       0.07301835 
C      -6.25304596      -0.27764778      -0.05556860 
C      -6.75942247      -1.22248006      -0.92161277 
C      -5.89559680      -2.05305489      -1.68932309 
C      -4.52825415      -1.93463954      -1.58815688 
C      -3.98021133      -0.96646441      -0.70287591 
N      -2.62403545      -0.87698772      -0.63100742 
H      -2.29091008       1.50311122       1.59813650 
H      -4.78765454       1.46449067       1.55609749 
H      -6.90755636       0.35733316       0.53257504 
H      -7.83319399      -1.34088046      -1.02466302 
H      -6.32713601      -2.78699253      -2.36181469 
H      -3.85392590      -2.55778846      -2.16578376 
N      -0.21057581       0.08696949       2.23303350 
C      -0.94336132      -0.83243667       2.92463745 
C      -1.01539578      -0.80450632       4.30063335 
C      -0.30984145       0.19733771       4.99204688 
C      -0.29604197       0.34381815       6.40352407 
C       0.43410218       1.36402082       6.97343962 
C       1.17585444       2.27414824       6.16885252 
C       1.18425739       2.16020416       4.79736125 
C       0.43814644       1.11636657       4.18467991 
N       0.46629524       1.03309787       2.82623762 
H      -1.44930083      -1.57700391       2.32536779 
H      -1.60581884      -1.54423925       4.83024848 
H      -0.86285911      -0.35323766       7.01211472 
H       0.44877392       1.48119005       8.05214941 
H       1.74007536       3.06644736       6.64965552 
H       1.74324550       2.84492605       4.16849939 
O      -0.04725317      -0.20670903      -1.62423107 
H       0.76158489       0.23503569      -1.93240918 
