36
Properties=species:S:1:pos:R:3 pbc="F F F"
Co       0.02287403       0.04274086       0.38944214 
O       1.96808840       3.48290678       0.54447272 
C       1.56927005       2.30843206       0.51581784 
O       0.30724831       1.96249731       0.44505502 
C       2.51698735       1.13889002       0.56373973 
C       3.90880472       1.12615325       0.63416515 
C       4.55640088      -0.11645217       0.66135391 
C       3.82410872      -1.31063696       0.61816361 
C       2.43478207      -1.22580535       0.54845860 
C       1.40813343      -2.32600673       0.48738878 
O       0.17311427      -1.89247475       0.42341060 
O       1.72445583      -3.52561899       0.50070946 
N       1.85229502      -0.02162612       0.52972008 
H       4.46310880       2.05673905       0.66432805 
H       5.63867225      -0.15440655       0.71531656 
H       4.31246479      -2.27777479       0.63588502 
C      -4.03438461       0.19024471      -0.76813731 
C      -2.64668174       0.14331522      -0.83656576 
N      -1.91801507       0.11046193       0.29126193 
C      -2.56422781       0.12424279       1.47797967 
C      -1.66372030       0.08525475       2.64826023 
N      -0.34871576       0.04326357       2.33192349 
C       0.54082131       0.00479573       3.33917811 
C       0.11118233       0.00881218       4.66121879 
C      -1.26243330       0.05401137       4.88710136 
N      -2.15687431       0.09246824       3.88407796 
N      -3.88505503       0.16823280       1.62928109 
C      -4.61386127       0.20102293       0.49921223 
H      -4.63576222       0.21721437      -1.66790968 
H      -2.08991751       0.13091400      -1.76601405 
H       1.59130085      -0.02887497       3.07794539 
H       0.82259463      -0.02225669       5.47662886 
H      -1.66712802       0.05984536       5.89323726 
H      -5.69079141       0.23682829       0.62336834 
O       0.11581530       0.04916961      -1.47671512 
H       1.05049302       0.03208387      -1.74146905 
