40
Properties=species:S:1:pos:R:3 pbc="F F F"
Co       0.12232844      -0.02239040       0.12334226 
O       1.98081364      -3.49427517       0.61770692 
C       1.62310487      -2.32091285       0.42788065 
O       0.38448991      -1.95667209       0.20387493 
C       2.60482917      -1.17695305       0.40741067 
C       3.99508392      -1.20156743       0.51022206 
C       4.68316621       0.01548831       0.41603615 
C       3.99128451       1.21974545       0.22914851 
C       2.60025773       1.16988041       0.14771660 
C       1.60975003       2.29536431      -0.00976655 
O       0.35782271       1.91060823       0.05756204 
O       1.96765561       3.47373580      -0.16297605 
N       1.97717400      -0.00915699       0.23692876 
H       4.51763955      -2.14001363       0.65387938 
H       5.76509157       0.02546314       0.48790799 
H       4.51193017       2.16707280       0.15265714 
O      -1.76021102      -0.04967268      -0.04336749 
H      -2.12566467       0.24957664       0.80489930 
N      -0.06303850      -0.02335752       2.08538822 
C      -0.78635154      -1.02266221       2.63994733 
C      -0.98108164      -1.11638805       4.01382642 
C      -0.41155442      -0.15417102       4.84893196 
C       0.33307904       0.87528059       4.27257335 
C       0.48524918       0.91089616       2.89008493 
H      -1.20496105      -1.74767298       1.95450309 
H      -1.57022931      -1.93554334       4.40959519 
H      -0.54587891      -0.20461203       5.92424042 
H       0.79528053       1.64884415       4.87466197 
H       1.04864841       1.70324262       2.41733336 
N       0.18170677      -0.02415882      -1.84899199 
C      -0.58074896       0.89416520      -2.48063386 
C      -0.61609720       0.99204673      -3.86786805 
C       0.15799740       0.11742088      -4.63184275 
C       0.94386359      -0.82924495      -3.97392568 
C       0.93197096      -0.87066731      -2.58315984 
H      -1.16548015       1.54446924      -1.84449486 
H      -1.24360897       1.74587138      -4.32934440 
H       0.14909781       0.17232481      -5.71531220 
H       1.56221514      -1.53331597      -4.51848272 
H       1.52798248      -1.59893738      -2.05026617 
