60
Properties=species:S:1:pos:R:3 pbc="F F F"
Co      -0.02541228      -0.32084790      -0.56786874 
O      -0.25003756       1.30883812      -1.60272251 
C      -0.19634722       2.58258561      -1.18071297 
C      -0.35301456       3.57430559      -2.18175535 
C      -0.33345538       4.93073554      -1.88356617 
C      -0.15395270       5.37657005      -0.56303634 
C       0.00572160       4.43746454       0.44487083 
C      -0.01186151       3.05251406       0.17161032 
C       0.17346654       2.06853857       1.21505471 
N       0.38818961       2.19563300       2.57748049 
C       0.54077917       0.91315807       3.13317825 
C       0.77904846       0.31636335       4.38394963 
C       0.85188286      -1.08824433       4.37190918 
C       0.70665502      -1.92134759       3.22792349 
C       0.46641177      -1.32298909       1.97818737 
O       0.29024091      -1.84275023       0.74790419 
C       0.40154171       0.06750228       2.04113450 
N       0.18264284       0.78183293       0.91097167 
H      -0.49345060       3.23543735      -3.20400123 
H      -0.45895724       5.65047289      -2.68759997 
H      -0.13778143       6.43659488      -0.33302440 
H       0.15069389       4.76517192       1.47078814 
H       0.42653830       3.07686547       3.07631543 
H       0.90321868       0.87861505       5.30193892 
H       1.03576889      -1.58508723       5.32087835 
H       0.78379473      -2.99869800       3.33834107 
O      -0.29034709      -1.44180810      -2.07040160 
H       0.58025607      -1.86230824      -2.19331401 
N      -1.96188593      -0.43806887      -0.22423708 
C      -2.71752342       0.68472493      -0.05256029 
C      -4.07271034       0.61571133       0.18433939 
C      -4.68165380      -0.65121617       0.24945670 
C      -6.06378555      -0.87399740       0.48381092 
C      -6.54638545      -2.16415147       0.52609949 
C      -5.68021453      -3.27766209       0.33974382 
C      -4.33501651      -3.09528313       0.11238272 
C      -3.81233004      -1.77378377       0.06263209 
N      -2.47705197      -1.63266366      -0.16751977 
H      -2.19158443       1.62552716      -0.11442584 
H      -4.64925203       1.52470416       0.31710811 
H      -6.71971920      -0.02107963       0.62550026 
H      -7.60226915      -2.34113513       0.70384694 
H      -6.09153487      -4.28096679       0.37879589 
H      -3.65957499      -3.93179539      -0.03232443 
N       1.91197510      -0.30313658      -0.94467748 
C       2.68426131       0.80196827      -0.75810765 
C       4.03419024       0.79577452      -1.03904027 
C       4.61635626      -0.38572070      -1.53180709 
C       5.98860825      -0.53218219      -1.86494737 
C       6.44462406      -1.73891876      -2.34843298 
C       5.56148826      -2.84220817      -2.51897372 
C       4.22593727      -2.73436183      -2.20520010 
C       3.73098904      -1.49924327      -1.70453135 
N       2.40608598      -1.42135354      -1.40388442 
H       2.17872019       1.67880009      -0.38129693 
H       4.62609902       1.69087073      -0.88157058 
H       6.65656903       0.31289047      -1.73368144 
H       7.49212681      -1.85772110      -2.60575086 
H       5.95326566      -3.77859464      -2.90233863 
H       3.53874227      -3.56449095      -2.32863633 
