54
Properties=species:S:1:pos:R:3 pbc="F F F"
Co       0.10812642       0.01542835       0.10197828 
C      -0.36449086       4.25335398      -0.21258221 
C       0.96430177       4.67112113      -0.22787106 
C       1.97577891       3.71636583      -0.11913163 
C       1.62795780       2.37295520       0.00779444 
C       2.58713512       1.26424946       0.09697279 
C       3.98235800       1.33213854       0.13289687 
C       4.70246275       0.13732310       0.19425531 
C       4.04360907      -1.09417793       0.20160443 
C       2.64712027      -1.10330579       0.15968285 
C       1.75126456      -2.26417201       0.11179347 
C       2.17523217      -3.59182014       0.07857036 
C       1.22196302      -4.60659911      -0.00953484 
C      -0.12761062      -4.26457863      -0.06191253 
C      -0.48719856      -2.91794242      -0.01821744 
N       0.42530008      -1.93715134       0.06757775 
N       1.97479663       0.06351444       0.12933842 
N       0.31982657       1.97262428       0.03947801 
C      -0.64842092       2.89403746      -0.08128077 
H      -1.18317706       4.95711527      -0.30344172 
H       1.21497244       5.72103446      -0.32954547 
H       3.01974957       4.00529423      -0.13929059 
H       4.48890381       2.28933599       0.11290014 
H       5.78571828       0.16519922       0.22776184 
H       4.60210221      -2.02105046       0.23449862 
H       3.23233340      -3.82566710       0.11576461 
H       1.53310057      -5.64484505      -0.03919371 
H      -0.90369771      -5.01709928      -0.13307240 
H      -1.52746375      -2.62042344      -0.04612614 
H      -1.66988957       2.53971343      -0.07976802 
N      -1.87518617       0.00513364       0.01820377 
C      -2.63902646       0.55535431       0.99128349 
C      -4.02804843       0.57046821       0.92525955 
C      -4.66276922      -0.00210680      -0.17792879 
C      -3.87515227      -0.56177028      -1.18429973 
C      -2.48955013      -0.53695395      -1.05686371 
H      -2.11794069       1.00665931       1.82652109 
H      -4.59012853       1.02855712       1.73073108 
H      -5.74494891      -0.00708268      -0.25333856 
H      -4.31624349      -1.01410010      -2.06506540 
H      -1.83914902      -0.94437198      -1.82026058 
N       0.06553062      -0.06729763       2.11973221 
C       0.74306493       0.81420597       2.88666452 
C       0.75530182       0.74146415       4.27625533 
C       0.04287196      -0.27587396       4.91050201 
C      -0.66600874      -1.18233596       4.12124491 
C      -0.63334974      -1.04709091       2.73795510 
H       1.28470460       1.60204178       2.38093524 
H       1.31826178       1.47788262       4.83775426 
H       0.03686624      -0.35878326       5.99200519 
H      -1.24271010      -1.98876517       4.55914073 
H      -1.18716492      -1.73015874       2.10729093 
O       0.11395696       0.01919403      -1.78133545 
H       1.01964857       0.22315466      -2.06921386 
