52
Properties=species:S:1:pos:R:3 pbc="F F F"
Co      -0.23679982      -0.18627594       0.31499440 
O       0.36421349       3.74711017       1.26737742 
C       0.64967334       2.54089960       1.06273948 
O      -0.21334005       1.74472534       0.49477383 
C       2.00184629       2.02557165       1.42245471 
C       2.99939016       2.84953088       1.96241994 
C       4.29734180       2.36915516       2.20888149 
C       4.67190319       1.05313033       1.91393324 
C       3.68353401       0.22953203       1.37720032 
N       3.67008103      -1.09182228       0.95392975 
C       2.41253735      -1.39879693       0.50960288 
C       1.96917801      -2.67119303      -0.01155624 
C       2.89986642      -3.68301494      -0.34465620 
C       2.48573571      -4.91588962      -0.82429373 
C       1.10974566      -5.16077164      -0.98190374 
C       0.17542527      -4.18376802      -0.66991359 
C       0.56732574      -2.91384026      -0.17567170 
O      -0.40621593      -2.06598124       0.14224067 
N       1.62327228      -0.32496104       0.63286164 
C       2.37318348       0.69940069       1.15575972 
H       2.76062810       3.88474141       2.18153500 
H       5.03668136       3.04346701       2.62827830 
H       5.68016468       0.69561916       2.09167824 
H       4.44960091      -1.73737129       1.00374565 
H       3.96302823      -3.48677797      -0.23821366 
H       3.21601861      -5.67578743      -1.08068919 
H       0.76911533      -6.12054532      -1.35999439 
H      -0.88742088      -4.37014572      -0.79170789 
O      -2.10583055      -0.07695763       0.00899482 
H      -2.27876396       0.87896354      -0.01874815 
N      -0.58539876      -0.33275173       2.25934281 
C      -1.41055106       0.55525713       2.85084450 
C      -1.70379881       0.49846609       4.21032239 
C      -1.13236167      -0.51071756       4.98718157 
C      -0.28325765      -1.43028106       4.36974844 
C      -0.03290865      -1.31042309       3.00548474 
H      -1.83164794       1.31747052       2.20877677 
H      -2.37087490       1.23656162       4.64096099 
H      -1.34434177      -0.57960133       6.04914950 
H       0.18466581      -2.23400758       4.92669925 
H       0.61563922      -2.00857215       2.49232943 
N       0.07936482      -0.03011487      -1.61818269 
C      -0.65352365      -0.78004922      -2.46571518 
C      -0.48196371      -0.71101244      -3.84540592 
C       0.47283615       0.16229418      -4.36900314 
C       1.22953023       0.93483280      -3.48632945 
C       1.00818459       0.81022695      -2.11795043 
H      -1.38255457      -1.43559133      -2.00895011 
H      -1.09317810      -1.33448580      -4.48801510 
H       0.62477429       0.23850114      -5.44072096 
H       1.98435087       1.62737378      -3.84085138 
H       1.57811804       1.39005429      -1.40367209 
