62
Properties=species:S:1:pos:R:3 pbc="F F F"
Co      -0.14283693       0.63973817      -0.28973160 
O       0.07496028      -1.79790452      -3.59058025 
C      -0.45444170      -1.13014504      -2.66343803 
O       0.25977526      -0.33130183      -1.93079713 
C      -1.92354985      -1.22380777      -2.43255360 
C      -2.76325236      -2.01651411      -3.22658351 
C      -4.15724752      -2.02543923      -3.04379467 
C      -4.78285312      -1.23285187      -2.07548200 
C      -3.95007844      -0.44296841      -1.28428286 
N      -4.19163736       0.45893323      -0.25913102 
C      -2.99817447       0.95909453       0.17961913 
C      -2.82027346       1.93522116       1.22734612 
C      -3.92524929       2.64592964       1.75002693 
C      -3.76699146       3.57592970       2.76555436 
C      -2.47966295       3.81462858       3.28016228 
C      -1.37753600       3.13760159       2.77836326 
C      -1.50897017       2.18063283       1.74087653 
O      -0.40924272       1.54003005       1.36088922 
N      -1.99790416       0.40579784      -0.52317993 
C      -2.55035614      -0.45340813      -1.44455688 
H      -2.32114332      -2.62680238      -4.00678745 
H      -4.76796821      -2.65582432      -3.68164998 
H      -5.85991747      -1.23123022      -1.94965088 
H      -5.10007773       0.68383366       0.12984353 
H      -4.91490182       2.47259803       1.33768657 
H      -4.62499771       4.11706193       3.14963412 
H      -2.33993002       4.54290078       4.07396039 
H      -0.38244726       3.32226883       3.17181133 
N       1.79728746       0.93139854      -0.02806985 
C       2.33216960       0.80895956       1.22108323 
C       3.67242277       1.02107748       1.45678363 
C       4.49775930       1.37647499       0.37265196 
C       5.89093386       1.63169069       0.46697041 
C       6.59762440       1.97676829      -0.66483240 
C       5.95284650       2.07920262      -1.92904744 
C       4.60354312       1.83691850      -2.05434726 
C       3.85184143       1.48120486      -0.90131297 
N       2.51790336       1.25365533      -1.06309027 
H       1.63371303       0.54616598       2.00356539 
H       4.07455320       0.91634841       2.45868142 
H       6.37808190       1.55246114       1.43351608 
H       7.66256123       2.17491937      -0.59776639 
H       6.53735107       2.35282910      -2.80132874 
H       4.09424230       1.91044081      -3.00939819 
N      -0.01553078      -1.09232081       0.71492345 
C      -0.90132428      -1.36653196       1.71416117 
C      -0.85178892      -2.54567456       2.42553857 
C       0.14960996      -3.48114556       2.10604410 
C       0.32034253      -4.73400496       2.75132472 
C       1.34202597      -5.56916612       2.35481055 
C       2.23129787      -5.19500441       1.30860371 
C       2.09336199      -3.98748541       0.66279570 
C       1.04491128      -3.10840459       1.05084805 
N       0.93630289      -1.92438226       0.38607937 
H      -1.63878836      -0.60215921       1.91414725 
H      -1.57197575      -2.73944989       3.21317005 
H      -0.35950406      -5.01405947       3.54951691 
H       1.47700408      -6.52844470       2.84396917 
H       3.02611366      -5.87530314       1.02097815 
H       2.76044421      -3.68572151      -0.13769158 
O      -0.21869938       2.26928043      -1.23697766 
H      -1.16369134       2.48267675      -1.30920676 
