50
Properties=species:S:1:pos:R:3 pbc="F F F"
Co       0.09631180       0.03490759       0.00989077 
O       1.72130730      -3.50496278      -0.75957085 
C       1.44136239      -2.32997021      -0.47073367 
O       0.22798427      -1.89646926      -0.24171137 
C       2.50344104      -1.26997245      -0.31633391 
C       3.89108698      -1.38962528      -0.37787545 
C       4.66217932      -0.24653942      -0.12625187 
C       4.05328559       0.97822490       0.17873920 
C       2.66026041       1.02645966       0.21050936 
C       1.74988409       2.19670958       0.48144715 
O       0.47559547       1.92002335       0.33683493 
O       2.18755333       3.31593450       0.79005489 
N       1.95602052      -0.08233700      -0.03724432 
H       4.34989092      -2.34441524      -0.60634233 
H       5.74391027      -0.31194956      -0.16344589 
H       4.63783280       1.86766590       0.38261727 
O      -1.78190949       0.16003999      -0.02303006 
H      -1.99865813       0.51243853       0.86014163 
N       0.03354658      -0.18895963       1.97446403 
C       0.85672617      -1.01473828       2.67533442 
C       0.76845604      -1.12537614       4.04767447 
C      -0.19504261      -0.36012759       4.72754622 
C      -0.39572696      -0.37510483       6.13277096 
C      -1.37650442       0.41849659       6.68604694 
C      -2.19281176       1.25392565       5.87181618 
C      -2.02551549       1.29251265       4.50675400 
C      -1.01981591       0.48253828       3.91185581 
N      -0.87794874       0.53942346       2.56123572 
H       1.58047382      -1.57976397       2.10645057 
H       1.43512973      -1.79395030       4.58110586 
H       0.22880028      -1.01396422       6.74850565 
H      -1.53587292       0.41143536       7.75941614 
H      -2.95631367       1.86576264       6.34066080 
H      -2.63796279       1.92197806       3.87020270 
N       0.00226330       0.27879492      -1.94442916 
C       0.53776547       1.35875194      -2.58046914 
C       0.41846639       1.52446354      -3.94340143 
C      -0.27829218       0.55265651      -4.68353224 
C      -0.47861299       0.59454890      -6.08820779 
C      -1.18255452      -0.41757017      -6.70346407 
C      -1.71240000      -1.50487101      -5.95317701 
C      -1.53636379      -1.57523977      -4.59012839 
C      -0.81280788      -0.54363749      -3.93132093 
N      -0.65654650      -0.64629417      -2.58307279 
H       1.04519337       2.08117869      -1.96015319 
H       0.85512534       2.39308231      -4.42394125 
H      -0.07276632       1.42595483      -6.65534656 
H      -1.33955019      -0.39167465      -7.77695750 
H      -2.26143862      -2.28578348      -6.46888855 
H      -1.93247811      -2.39618643      -4.00208796 
