46
Properties=species:S:1:pos:R:3 pbc="F F F"
Co       0.14800712       0.28783096       0.10596674 
O       1.23498648      -3.48039395       0.68353934 
C       1.12963325      -2.26523030       0.45430042 
O      -0.01275550      -1.64659276       0.27771948 
C       2.33359198      -1.36730740       0.32249298 
C       3.68861675      -1.69437634       0.34801217 
C       4.61784050      -0.66361085       0.15491700 
C       4.19483087       0.65611166      -0.05193917 
C       2.82414397       0.91186673      -0.05223756 
C       2.09425996       2.22263671      -0.20557716 
O       0.79596910       2.12377970      -0.05917019 
O       2.69175815       3.28801749      -0.42658829 
N       1.96597386      -0.09638474       0.13065986 
H       4.00247464      -2.71921697       0.50774601 
H       5.67820007      -0.89019273       0.16548380 
H       4.90327157       1.46190043      -0.20381592 
O      -1.69742877       0.69329422       0.13564099 
H      -2.06621755       0.41186909      -0.71716192 
N       0.09161114       0.39848781       2.07643610 
C       0.95829735       1.15563263       2.82299767 
C       0.88819924       1.21147092       4.19310669 
C      -0.10411308       0.47109872       4.88631991 
C      -0.24666534       0.47431870       6.29797754 
C      -1.24216251      -0.27774024       6.88953198 
C      -2.13199798      -1.05939775       6.10690496 
C      -2.01810505      -1.08257652       4.73311030 
C      -1.00182786      -0.31742005       4.09954064 
C      -0.84880908      -0.31109790       2.69384812 
H       1.70556365       1.71957591       2.28334936 
H       1.59579387       1.82639144       4.73899034 
H       0.43311943       1.07173001       6.89767553 
H      -1.35037976      -0.27448576       7.96979176 
H      -2.90550692      -1.63997746       6.59921607 
H      -2.69270791      -1.67562471       4.12299311 
H      -1.51132706      -0.89278192       2.06509798 
N       0.09770535       0.20990842      -1.86391140 
C      -0.39745932       1.28416222      -2.51922124 
C      -0.46635727       1.33200121      -3.90753626 
C      -0.00822467       0.24252046      -4.64983277 
C       0.50220979      -0.86329308      -3.96931434 
C       0.53867399      -0.84590751      -2.57861701 
H      -0.73504428       2.10730810      -1.90325199 
H      -0.87293156       2.21513768      -4.38661078 
H      -0.04795434       0.25515406      -5.73383998 
H       0.87063055      -1.73554872      -4.49661084 
H       0.92321018      -1.69164364      -2.02576102 
