60
Properties=species:S:1:pos:R:3 pbc="F F F"
Co      -0.57338477      -0.38713303      -0.32848807 
O      -0.54133477      -2.29437740      -0.08965068 
C       0.52247637      -3.11122047      -0.11103098 
C       0.26563590      -4.46955178       0.20065677 
C       1.27152474      -5.42876989       0.19543991 
C       2.59514841      -5.08249871      -0.12165486 
C       2.88539952      -3.76026658      -0.42914302 
C       1.88437206      -2.76720099      -0.42783860 
C       2.17866034      -1.38861237      -0.73983391 
N       3.34522984      -0.76195955      -1.14956623 
C       3.07883010       0.60438300      -1.34720007 
C       3.74877687       1.77257010      -1.75371667 
C       2.95500948       2.93297310      -1.79758191 
C       1.57056301       3.00883838      -1.47571107 
C       0.90231938       1.83973366      -1.07015872 
O      -0.37587119       1.60638189      -0.71667297 
C       1.73251665       0.72221734      -1.03099072 
N       1.22683802      -0.47787867      -0.66324977 
H      -0.75674541      -4.74475880       0.44341354 
H       1.02236132      -6.45724817       0.44137633 
H       3.37932919      -5.83218749      -0.12517347 
H       3.90455652      -3.47204919      -0.67344364 
H       4.23400691      -1.22881789      -1.28463110 
H       4.79812278       1.79813309      -2.02343279 
H       3.43855902       3.85524016      -2.10897527 
H       1.05620126       3.96212917      -1.55235440 
N      -2.50598429      -0.26433035      -0.00127302 
C      -3.32095660      -1.22661002      -0.51640062 
C      -4.68517972      -1.19353598      -0.32459098 
C      -5.23443029      -0.12671112       0.41250901 
C      -6.61890155       0.04100970       0.67955469 
C      -7.04418641       1.12594740       1.41504320 
C      -6.11635153       2.08257343       1.91404105 
C      -4.76767346       1.94901457       1.67400528 
C      -4.30323818       0.83913168       0.91625274 
N      -2.96148852       0.73869101       0.70100472 
H      -2.81706925      -2.00227408      -1.07637006 
H      -5.31606882      -1.97345186      -0.73732924 
H      -7.32240553      -0.69166255       0.29726444 
H      -8.10145437       1.25844504       1.62113370 
H      -6.48307064       2.92577713       2.49014516 
H      -4.04557735       2.66841106       2.04556693 
N      -0.23492253      -0.13707871       1.60820088 
C      -0.84411171      -0.97705507       2.49372109 
C      -0.64358341      -0.86500990       3.85149875 
C       0.21588562       0.14634987       4.32187561 
C       0.51504205       0.37913227       5.68994983 
C       1.37289700       1.40109238       6.03484024 
C       1.96508161       2.22771854       5.03981332 
C       1.69614545       2.02767268       3.70450543 
C       0.81372761       0.98046616       3.32268076 
N       0.57135258       0.81315318       1.99104220 
H      -1.48034873      -1.73230244       2.05223140 
H      -1.14011098      -1.54372815       4.53664209 
H       0.06113305      -0.25478781       6.44490306 
H       1.60508951       1.58312668       7.07921162 
H       2.63627174       3.02434975       5.34357935 
H       2.13781879       2.64816318       2.93193758 
O      -0.93630931      -0.62594497      -2.16929498 
H      -0.65530438      -1.54266763      -2.32873184 
