59
Properties=species:S:1:pos:R:3 pbc="F F F"
Co       0.09475639      -0.30011179       0.11512727 
O       1.52216236       3.40387872       0.22222360 
C       1.30208425       2.18130646       0.19834315 
O       0.10913430       1.65291321       0.13051918 
C       2.41863696       1.17069371       0.24552490 
C       3.79045563       1.39439813       0.32099041 
C       4.63537077       0.27655730       0.35220977 
C       4.11439472      -1.02018603       0.30889728 
C       2.72578895      -1.17606942       0.23479174 
C       1.92373372      -2.41128883       0.17844112 
C       2.42758126      -3.70921152       0.18863255 
C       1.53336760      -4.78107269       0.13135995 
C       0.16370679      -4.52849709       0.06446888 
C      -0.28326150      -3.20647196       0.05631035 
N       0.57440556      -2.17838725       0.11228123 
N       1.94616461      -0.08066301       0.20659685 
H       4.18034997       2.40465588       0.35351360 
H       5.70900133       0.41641650       0.41030326 
H       4.76729872      -1.88441464       0.33220725 
H       3.49717900      -3.87521962       0.24116715 
H       1.90707296      -5.79889440       0.13885718 
H      -0.55895206      -5.33438122       0.01864052 
H      -1.33349209      -2.94510466       0.00244134 
O      -1.77670477      -0.50446876      -0.03090318 
H      -2.08745620      -0.90216601       0.79889352 
N      -0.07853373      -0.25361539       2.08285234 
C       0.64158635      -1.04025424       2.94726698 
C       0.49083616      -0.96131830       4.30922700 
C      -0.43421808      -0.04548549       4.87267277 
C      -0.65264190       0.09526151       6.26723390 
C      -1.57543647       1.01318658       6.72785309 
C      -2.31386818       1.82461810       5.82692254 
C      -2.12278925       1.71133192       4.46632891 
C      -1.17944179       0.77328022       3.96622273 
C      -0.95262636       0.62079165       2.57916393 
H       1.34152356      -1.73752690       2.50981201 
H       1.08317779      -1.60677115       4.94891921 
H      -0.08883615      -0.52481895       6.95721920 
H      -1.74298347       1.12041938       7.79508270 
H      -3.03257851       2.53745556       6.21802883 
H      -2.68104561       2.32603653       3.76674524 
H      -1.49792353       1.22605732       1.86452434 
N       0.11346740      -0.21068621      -1.85560999 
C       0.96181939      -0.92191531      -2.66591604 
C       0.92388873      -0.82034398      -4.03443657 
C      -0.01288814       0.04257144      -4.65905135 
C      -0.12032817       0.20345259      -6.06457525 
C      -1.06400953       1.06555428      -6.58665857 
C      -1.93393295       1.79995101      -5.73852335 
C      -1.85266660       1.66560327      -4.36885858 
C      -0.89078750       0.78363117      -3.80604142 
C      -0.77529848       0.61080190      -2.40751582 
H       1.67035884      -1.57884570      -2.18090112 
H       1.61438115      -1.40608626      -4.63175933 
H       0.54400610      -0.35725027      -6.71476126 
H      -1.14633023       1.18783079      -7.66223886 
H      -2.66576703       2.47041763      -6.17743820 
H      -2.51202834       2.22106913      -3.70880735 
H      -1.42570470       1.15211613      -1.73141849 
