60
Properties=species:S:1:pos:R:3 pbc="F F F"
Co       0.08280031       0.00689885       0.07918465 
C      -0.36327542       4.24931514      -0.25504519 
C       0.96763675       4.65416341      -0.33049840 
C       1.97360060       3.68954172      -0.26487547 
C       1.61790412       2.35015549      -0.11899272 
C       2.57013048       1.23335890      -0.06482897 
C       3.96545399       1.28758882      -0.10939133 
C       4.67742387       0.08668266      -0.07193458 
C       4.00945242      -1.13824507      -0.00485943 
C       2.61320696      -1.13300140       0.03931670 
C       1.70615494      -2.28513742       0.07176558 
C       2.11761776      -3.61703064       0.07731359 
C       1.15321765      -4.62495996       0.06728964 
C      -0.19439100      -4.27128924       0.05203183 
C      -0.54078121      -2.92040122       0.05822979 
N       0.38273634      -1.94631570       0.07091109 
N       1.95022648       0.03958530       0.02439706 
N       0.30871622       1.96255205      -0.02743048 
C      -0.65470017       2.89327898      -0.10751310 
H      -1.17812877       4.96106855      -0.31128910 
H       1.22386756       5.70142421      -0.44544543 
H       3.01793953       3.96880546      -0.33313887 
H       4.48009617       2.23813887      -0.17315875 
H       5.76091997       0.10519330      -0.10410212 
H       4.55913837      -2.07110397       0.00675081 
H       3.17405568      -3.85745813       0.08696272 
H       1.45343533      -5.66677880       0.06970270 
H      -0.97917882      -5.01816110       0.04029394 
H      -1.57906262      -2.61362888       0.05904731 
H      -1.67908123       2.55012623      -0.05918005 
N      -1.90082575       0.00152685       0.08032401 
C      -2.56829775      -0.57735937      -0.97310137 
C      -3.93911693      -0.60856250      -1.04736598 
C      -4.72462370      -0.02060503      -0.02277434 
C      -6.14307115      -0.00709044      -0.02490235 
C      -6.82475730       0.59862918       1.01183785 
C      -6.12902141       1.21240631       2.08661130 
C      -4.75085763       1.21372114       2.11740478 
C      -4.02563434       0.59492225       1.06320716 
C      -2.61235242       0.56885746       1.05521818 
H      -1.94155085      -1.00018670      -1.74633218 
H      -4.41562689      -1.08375038      -1.89830139 
H      -6.67616938      -0.47439250      -0.84695207 
H      -7.91032639       0.60933467       1.00950458 
H      -6.69210802       1.68178391       2.88675910 
H      -4.20686322       1.67809627       2.93432940 
H      -2.06740378       1.04305289       1.86401196 
N       0.12647458      -0.02977332       2.10009597 
C      -0.53960246      -0.99424555       2.77580352 
C      -0.51800642      -1.08563715       4.16300073 
C       0.21180167      -0.14897397       4.89572551 
C       0.89182416       0.85177897       4.20233845 
C       0.82651217       0.87951492       2.81263479 
H      -1.11199038      -1.70171541       2.19057478 
H      -1.07070372      -1.88201191       4.64769409 
H       0.24647897      -0.19639835       5.97884510 
H       1.46983546       1.60982478       4.71789498 
H       1.34442619       1.65233187       2.26090864 
O       0.01800388      -0.02412631      -1.80348176 
H       0.91031855       0.18544502      -2.12676987 
