46
Properties=species:S:1:pos:R:3 pbc="F F F"
Co      -0.11650990      -0.00446423       0.54771705 
O      -0.01995765       1.89476763       0.30687491 
C       1.07366304       2.67179305       0.33068228 
C       0.85281046       4.04898558       0.07902337 
C       1.89035812       4.97248209       0.08453229 
C       3.21241583       4.56973248       0.33706516 
C       3.46834755       3.22836694       0.58290062 
C       2.43238486       2.27012851       0.58694117 
C       2.68642502       0.87314569       0.84503004 
N       3.85308635       0.17803605       1.11259228 
C       3.54513421      -1.18366353       1.28128929 
C       4.20122406      -2.39762233       1.55053492 
C       3.36770616      -3.52942345       1.60371363 
C       1.95863397      -3.53639935       1.40854471 
C       1.30456723      -2.32143096       1.14044760 
O       0.00845589      -2.02272660       0.90949267 
C       2.16960783      -1.23141292       1.10433795 
N       1.68429689       0.00931497       0.85077178 
H      -0.16724984       4.36575374      -0.11817887 
H       1.66827659       6.01777907      -0.11122919 
H       4.02170072       5.29214144       0.33943669 
H       4.48609867       2.90050340       0.77769423 
H       4.77422660       0.59685671       1.16534364 
H       5.27051725      -2.47797042       1.70681037 
H       3.84008426      -4.48620305       1.80976108 
H       1.41565850      -4.47472801       1.46733303 
C      -4.10065957      -0.31774642      -0.84966473 
C      -2.71119763      -0.27023170      -0.83129316 
N      -2.05656812      -0.07892799       0.32511857 
C      -2.78019906       0.06361207       1.45725860 
C      -1.96052128       0.27272320       2.67002203 
N      -0.62750375       0.26606247       2.44338796 
C       0.19105273       0.45783455       3.49140911 
C      -0.32823971       0.65460858       4.76649274 
C      -1.71463790       0.64423936       4.90069332 
N      -2.53917530       0.45381250       3.85578878 
N      -4.10957245       0.03117256       1.52706457 
C      -4.76225998      -0.16086854       0.36670484 
H      -4.64187603      -0.47100804      -1.77480350 
H      -2.09379676      -0.37816942      -1.71525747 
H       1.25612685       0.45342795       3.29383472 
H       0.32466834       0.81001382       5.61604363 
H      -2.18723886       0.79224187       5.86564939 
H      -5.84514002      -0.18698567       0.42371206 
O       0.14233180      -0.29920737      -1.28481323 
H       0.99939404       0.10346070      -1.50276294 
