52
Properties=species:S:1:pos:R:3 pbc="F F F"
Co       0.00000000       0.00000000       0.00000000 
O       0.43150100       3.75640000       0.94806000 
C       0.74150800       2.59897500       0.71277300 
O      -0.01502000       1.90308500      -0.04309000 
C       1.86008500       1.94943400       1.47519000 
C       2.34187200       2.53442700       2.67048700 
C       3.26690200       1.84943900       3.48612400 
C       3.72426000       0.57299400       3.12647400 
C       3.25676000       0.02896800       1.93451200 
N       3.55161700      -1.21306900       1.38854100 
C       2.84588200      -1.25722400       0.13059900 
C       2.12030900      -2.59097800      -0.15000700 
C       2.98582500      -3.67258200      -0.44077400 
C       2.49388800      -4.92362400      -0.81364800 
C       1.12296500      -5.14094100      -0.89570800 
C       0.23931300      -4.10656300      -0.59696300 
C       0.71050200      -2.83869200      -0.23014600 
O      -0.21795400      -1.90308500       0.04309000 
N       2.10000000       0.00000000       0.00000000 
C       2.37987100       0.68107900       1.11941400 
H       1.96881300       3.49548200       3.00250500 
H       3.60346100       2.29903000       4.41116300 
H       4.41184100       0.02720000       3.75890400 
H       4.22394000      -1.90514900       1.75339500 
H       4.05981900      -3.53566400      -0.41162300 
H       3.18118800      -5.72527200      -1.05061300 
H       0.74306500      -6.10836500      -1.19237400 
H      -0.82663900      -4.28635700      -0.66240700 
O      -2.08000000       0.00000000       0.00000000 
H      -3.50051500       0.00000000       0.00000000 
N       0.00000000       0.00000000       2.10000000 
C      -0.60786300       0.99980400       2.82322200 
C      -0.62430700       0.98076600       4.22002000 
C      -0.06223400      -0.09461200       4.89687800 
C       0.50275800      -1.13858200       4.17258100 
C       0.52010500      -1.07687900       2.77770100 
H      -1.06797700       1.83859700       2.32520200 
H      -1.07448700       1.79575600       4.77195000 
H      -0.06873500      -0.12294300       5.97896000 
H       0.92660000      -1.99102800       4.68666500 
H       0.97016000      -1.89630200       2.24757000 
N       0.00000000       0.00000000      -2.10000000 
C      -0.82662000      -0.85095000      -2.77895600 
C      -0.83652400      -0.86648000      -4.17543900 
C       0.00572900      -0.00174300      -4.87475100 
C       0.84487000       0.86293600      -4.17392400 
C       0.82932100       0.85001400      -2.77727800 
H      -1.48025800      -1.51958400      -2.23588400 
H      -1.49211400      -1.54185100      -4.70973400 
H       0.00736200      -0.00310400      -5.95719400 
H       1.50176600       1.53803600      -4.70705000 
H       1.47961100       1.52057800      -2.23232000 
