66
Properties=species:S:1:pos:R:3 pbc="F F F"
Co       0.12382182       0.34146160       0.07204207 
C       0.30785794       4.57551483      -0.07414483 
C       1.68231888       4.79347633       0.01239280 
C       2.54492472       3.70013004       0.11293405 
C       2.00499067       2.41574068       0.12682825 
C       2.77765853       1.16434115       0.22838984 
C       4.15925821       1.00133251       0.35358697 
C       4.66679162      -0.29920428       0.42775397 
C       3.81770516      -1.40768713       0.37289178 
C       2.44356321      -1.18455610       0.24577467 
C       1.35937690      -2.17459853       0.15862422 
C       1.52908842      -3.55780814       0.14941176 
C       0.40400008      -4.37723154       0.03772318 
C      -0.85868361      -3.79540572      -0.06231606 
C      -0.96486937      -2.40479473      -0.04353716 
N       0.11457915      -1.61787188       0.06706460 
N       1.97957942       0.07761916       0.18394185 
N       0.65316292       2.21648956       0.04476640 
C      -0.17403991       3.26662195      -0.05640540 
H      -0.39230162       5.39834000      -0.15521915 
H       2.08325639       5.80090818       0.00038736 
H       3.61766693       3.83837902       0.17874145 
H       4.81836232       1.85986815       0.39217611 
H       5.73569932      -0.45013620       0.52818448 
H       4.21446237      -2.41375562       0.42913754 
H       2.52177370      -3.98557090       0.22217704 
H       0.51772233      -5.45563132       0.02710879 
H      -1.75541057      -4.39659983      -0.15321414 
H      -1.92087775      -1.89813540      -0.11241309 
H      -1.23062239       3.03718373      -0.12637086 
O      -1.73509385       0.60270056      -0.04440283 
H      -2.01389147       1.08758088       0.74958026 
N      -0.03729672       0.33092844       2.05690498 
C       0.82328127       1.00630582       2.88747545 
C       0.70910611       0.97048612       4.25481996 
C      -0.32364087       0.21524896       4.86619706 
C      -0.50987002       0.12255391       6.26914674 
C      -1.54567219      -0.63834036       6.77373435 
C      -2.43279478      -1.33314723       5.91007747 
C      -2.27738589      -1.26093675       4.54218846 
C      -1.21876361      -0.48463618       3.99767306 
C      -1.02109528      -0.38360132       2.60183727 
H       1.60673925       1.58420682       2.42050215 
H       1.41595620       1.52705331       4.86085626 
H       0.16768306       0.65386562       6.93016034 
H      -1.68891705      -0.70982142       7.84744691 
H      -3.23780759      -1.92315166       6.33598725 
H      -2.94941225      -1.78728064       3.87125004 
H      -1.69586614      -0.89490534       1.92624339 
N       0.14488321       0.28089922      -1.91930320 
C       1.22549589       0.66414026      -2.67542501 
C       1.23309589       0.57774782      -4.04551129 
C       0.10145907       0.07291641      -4.73556619 
C       0.02811019      -0.05611770      -6.14629163 
C      -1.11790732      -0.55903852      -6.72978469 
C      -2.23076510      -0.95078632      -5.94010375 
C      -2.18879341      -0.83584654      -4.56691243 
C      -1.02044931      -0.32222815      -3.94167358 
C      -0.93471708      -0.19152741      -2.53646009 
H       2.08572837       1.04829254      -2.14732954 
H       2.11276098       0.89941488      -4.59273623 
H       0.87803925       0.24378732      -6.75133055 
H      -1.17434246      -0.65855532      -7.80932234 
H      -3.11800663      -1.34234253      -6.42704780 
H      -3.03322851      -1.13131866      -3.95157543 
H      -1.77668398      -0.46539442      -1.91321634 
