51
Properties=species:S:1:pos:R:3 pbc="F F F"
Co       0.14067714       0.23947971       0.18583752 
O       1.92782828      -3.29708179       0.08919931 
C       1.58465604      -2.10308510       0.12454185 
O       0.34381523      -1.69521185       0.08978548 
C       2.59074158      -0.98655473       0.20695934 
C       3.98316236      -1.04823927       0.22086613 
C       4.69724835       0.15641434       0.26952786 
C       4.02768568       1.38658900       0.29401533 
C       2.63372660       1.37389789       0.28185501 
C       1.66741401       2.52936559       0.28224100 
O       0.40887117       2.16256220       0.29036636 
O       2.04819947       3.71042615       0.28440466 
N       1.98510585       0.20435395       0.25211301 
H       4.48826117      -2.00645843       0.18917062 
H       5.78136828       0.13615952       0.27994690 
H       4.56608987       2.32672131       0.31768080 
N      -1.80502377       0.31754924       0.08039920 
C      -2.47203007       1.32052430       0.71877472 
C      -3.84486153       1.41913700       0.65863341 
C      -4.55608878       0.45162067      -0.07637344 
C      -5.96814710       0.42723973      -0.21971665 
C      -6.55905904      -0.57163589      -0.96270905 
C      -5.77606534      -1.58076244      -1.58991903 
C      -4.40489363      -1.58639890      -1.47100331 
C      -3.77100847      -0.56685265      -0.71000893 
N      -2.41243179      -0.60307676      -0.61403757 
H      -1.85205566       2.01997170       1.26411860 
H      -4.35820680       2.22575247       1.17064311 
H      -6.56066662       1.19906518       0.26063822 
H      -7.63811365      -0.59504471      -1.07562205 
H      -6.27262127      -2.35300539      -2.16813204 
H      -3.79153841      -2.34694256      -1.94220391 
N      -0.05020291       0.06779540       2.17067500 
C      -0.76858060      -1.00423071       2.64512734 
C      -0.99411683      -1.20175712       3.98427599 
C      -0.47745132      -0.28484671       4.93653555 
C      -0.66318145      -0.41575608       6.33670434 
C      -0.12608805       0.52587151       7.19195269 
C       0.61311359       1.63019437       6.69299994 
C       0.80920230       1.78478250       5.33690926 
C       0.26748641       0.82915621       4.43574881 
C       0.43974531       0.94901971       3.03626036 
H      -1.14333728      -1.68939958       1.89664268 
H      -1.57043254      -2.06183850       4.30842601 
H      -1.22843030      -1.25979282       6.71955056 
H      -0.26876372       0.42504195       8.26344271 
H       1.02383891       2.35499748       7.38847556 
H       1.37191513       2.62551688       4.94227991 
H       0.98552151       1.79601905       2.63898978 
O       0.17705936       0.32713257      -1.69728314 
H       1.04452734       0.67436946      -1.96382079 
