61
Properties=species:S:1:pos:R:3 pbc="F F F"
Co       0.09989947       0.17591930       0.11996278 
O       1.75404295      -3.41209256       0.30167580 
C       1.46451705      -2.20582451       0.25421168 
O       0.23930184      -1.75238254       0.17915212 
C       2.51164640      -1.12684682       0.27864625 
C       3.89344650      -1.26610618       0.35320614 
C       4.66730128      -0.09734495       0.36120823 
C       4.06584925       1.16178209       0.29628009 
C       2.66781809       1.23210942       0.22274384 
C       1.80069706       2.42070708       0.14614375 
C       2.28582996       3.72223299       0.13563505 
C       1.37788765       4.78105678       0.06057437 
C       0.02205531       4.49728003      -0.00097781 
C      -0.42102016       3.16208437       0.01253013 
C      -1.93066727       2.95113767      -0.05890347 
O      -2.54213221       2.96669354       1.04700547 
O      -2.42627457       2.90526825      -1.22055577 
N       0.45022215       2.13882335       0.08474054 
N       1.96044020       0.09269348       0.21739636 
H       4.34436181      -2.25006872       0.40292636 
H       5.74778738      -0.16786771       0.41850282 
H       4.66970950       2.06084649       0.30284396 
H       3.35242559       3.90266142       0.18521443 
H       1.73054273       5.80642365       0.05081863 
H      -0.71538996       5.28965933      -0.06006358 
O      -1.77839989       0.18401153       0.02363423 
H      -2.01143870      -0.75925768       0.03772319 
N      -0.03209078       0.16601969       2.10404954 
C       0.66268853       1.01291659       2.93024891 
C       0.55803929       0.95736190       4.29815614 
C      -0.28781899      -0.00282488       4.90973377 
C      -0.45169162      -0.13105211       6.31318280 
C      -1.29493654      -1.09981732       6.81978898 
C      -2.00653226      -1.97512750       5.95766307 
C      -1.86799386      -1.87410851       4.58973019 
C      -1.00565644      -0.88565176       4.04278689 
C      -0.83265173      -0.74743147       2.64635449 
H       1.30401690       1.74273182       2.45785007 
H       1.12740133       1.65394386       4.90423580 
H       0.09162948       0.53767862       6.97358919 
H      -1.41971137      -1.19824640       7.89373559 
H      -2.66290518      -2.72654171       6.38455362 
H      -2.40701437      -2.53667555       3.91925108 
H      -1.36154356      -1.40554782       1.96862845 
N       0.17090066       0.05878348      -1.86386445 
C       0.94905231       0.86141846      -2.65934350 
C       0.98432039       0.73180794      -4.02578546 
C       0.20220670      -0.26200117      -4.66774580 
C       0.18198373      -0.46626306      -6.07160967 
C      -0.60824016      -1.46296927      -6.60858509 
C      -1.40687091      -2.29208397      -5.77759177 
C      -1.40831440      -2.11696688      -4.41012194 
C      -0.60314583      -1.09838168      -3.83219299 
C      -0.57307364      -0.88450742      -2.43489822 
H       1.54119455       1.61715437      -2.16403257 
H       1.61475065       1.39596125      -4.60732629 
H       0.79197652       0.16708032      -6.70825789 
H      -0.62308763      -1.61957715      -7.68276948 
H      -2.01864448      -3.06700982      -6.22804389 
H      -2.01504177      -2.74360023      -3.76336576 
H      -1.17049095      -1.50620675      -1.78011939 
