54
Properties=species:S:1:pos:R:3 pbc="F F F"
Co       0.00000000       0.00000000       0.00000000 
O       1.93031600      -3.53737000      -0.18619000 
C       1.60609000      -2.36094100      -0.16871200 
O       0.38102900      -2.02030100      -0.07466500 
C       2.59751500      -1.24880900       0.09588100 
C       3.85476600      -1.49253300       0.66366400 
C       4.53010300      -0.42357700       1.25667400 
C       3.89295300       0.81781400       1.34578400 
C       2.63973600       0.97544100       0.72703000 
C       1.77036000       2.11585900       0.82184000 
C       1.98131400       3.18684300       1.70299200 
C       1.02260000       4.18795000       1.79213100 
C      -0.10802000       4.13480300       0.98555400 
C      -0.29652400       3.05121200       0.10340800 
C      -1.49335000       3.05603000      -0.77353100 
O      -1.64695600       2.13395400      -1.73296500 
O      -2.33221600       3.93785000      -0.67452500 
N       0.62358100       2.02030100       0.07466500 
N       2.10000000       0.00000000       0.00000000 
H       4.26123700      -2.49340700       0.73302900 
H       5.48725900      -0.58076200       1.73671800 
H       4.36069200       1.61720300       1.90288500 
H       2.85005200       3.23628500       2.34386900 
H       1.15343600       5.00778600       2.48678900 
H      -0.83484000       4.93472600       1.05543600 
O      -2.08000000       0.00000000       0.00000000 
H      -3.50051500       0.00000000       0.00000000 
N       0.00000000       0.00000000       2.10000000 
C      -0.34968400       1.09099000       2.84399200 
C      -0.34321200       1.04624600       4.23074000 
C      -0.02419500      -0.14705100       4.86362500 
C      -0.02890700      -0.24984900       6.25988400 
C       0.25824600      -1.46699300       6.87332300 
C       0.54036900      -2.59326500       6.09106200 
C       0.55622300      -2.50185700       4.69027400 
C       0.28007200      -1.27271200       4.07194800 
N       0.29532100      -1.15437400       2.71230900 
H      -0.63446100       2.00475800       2.37419500 
H      -0.60335100       1.93048900       4.79959600 
H      -0.25273300       0.61763000       6.87847000 
H       0.24933500      -1.54291300       7.95305400 
H       0.74699300      -3.54034600       6.57248600 
H       0.77791700      -3.37428000       4.09884000 
N       0.00000000       0.00000000      -2.10000000 
C       1.09395400       0.44861300      -2.79494600 
C       1.11068300       0.44467400      -4.19115400 
C      -0.00531400      -0.00856400      -4.88789300 
C      -1.11695900      -0.46281700      -4.18377500 
C      -1.09320100      -0.46267500      -2.78659300 
H       1.96653200       0.81542700      -2.27960200 
H       1.98313400       0.79569300      -4.72725300 
H      -0.00794500      -0.00808700      -5.97026200 
H      -1.99156800      -0.81455400      -4.71550900 
H      -1.96171400      -0.82353100      -2.25941300 
