60
Properties=species:S:1:pos:R:3 pbc="F F F"
Cr       0.00975644       0.01585633      -0.03836470 
C      -0.15545166       4.39940067      -0.22010996 
C       1.19475523       4.73316855      -0.31182556 
C       2.15116919       3.71751494      -0.28614989 
C       1.73098716       2.39299886      -0.16643759 
C       2.64674613       1.23830895      -0.11964203 
C       4.04258168       1.29396320      -0.12892053 
C       4.75601716       0.09584459      -0.07466210 
C       4.08615934      -1.12697024      -0.01318809 
C       2.68849593      -1.12398782      -0.00211316 
C       1.81514409      -2.30990639       0.04935715 
C       2.28192435      -3.62354600       0.11152423 
C       1.36139451      -4.67180713       0.13416075 
C      -0.00143149      -4.38303929       0.09007583 
C      -0.40251760      -3.04949994       0.03492815 
N       0.47960549      -2.03513668       0.02036542 
N       2.01427619       0.04598313      -0.05121302 
N       0.40680914       2.07356262      -0.07738611 
C      -0.51016050       3.05609657      -0.10792357 
H      -0.93057220       5.15623534      -0.23767650 
H       1.50455561       5.76830522      -0.40372632 
H       3.20574909       3.95277689      -0.36023264 
H       4.56098984       2.24309899      -0.17663259 
H       5.84010082       0.11496416      -0.08097795 
H       4.64278869      -2.05468097       0.02309267 
H       3.34475245      -3.82885496       0.14150906 
H       1.70883892      -5.69789786       0.18218384 
H      -0.74985094      -5.16639044       0.09949035 
H      -1.45236276      -2.78228654       0.00123111 
H      -1.54895034       2.75617934      -0.04601439 
N      -2.09776342       0.02708115       0.01837992 
C      -2.78637067      -0.61552983      -0.98450447 
C      -4.15743884      -0.67063873      -1.01596469 
C      -4.91862397      -0.04220838       0.00483977 
C      -6.33637335      -0.05159272       0.04653156 
C      -6.99772563       0.58906076       1.07565159 
C      -6.28185601       1.26260849       2.10012380 
C      -4.90371405       1.28905422       2.08736086 
C      -4.19870013       0.63604625       1.04011645 
C      -2.78670687       0.62812499       0.98917149 
H      -2.17336729      -1.06994461      -1.75268398 
H      -4.65585891      -1.19345694      -1.82544484 
H      -6.88597830      -0.56498378      -0.73627202 
H      -8.08288742       0.58061921       1.10634070 
H      -6.82927220       1.75724251       2.89592065 
H      -4.34357744       1.79887821       2.86543725 
H      -2.21741087       1.13525462       1.76173978 
N       0.06241127      -0.03676396       2.12080301 
C      -0.63555664      -0.99446337       2.77451721 
C      -0.62405437      -1.11917055       4.15935182 
C       0.13383512      -0.22124487       4.91324890 
C       0.85095321       0.77238843       4.24558231 
C       0.79038483       0.83219510       2.85672533 
H      -1.22114738      -1.67223947       2.16480877 
H      -1.20196740      -1.90763722       4.62753545 
H       0.16328650      -0.29382907       5.99529621 
H       1.45216616       1.49662681       4.78297761 
H       1.33730401       1.59637131       2.31890147 
O      -0.07959951      -0.00275802      -1.91561138 
H       0.77720761       0.21541938      -2.31934535 
