52
Properties=species:S:1:pos:R:3 pbc="F F F"
Cr      -0.06052687       0.05924334       0.15283597 
O       1.72392632      -3.53110303       0.73412240 
C       1.41303425      -2.33953612       0.57248623 
O       0.19638947      -1.91464147       0.36287748 
C       2.44973324      -1.24776334       0.60241152 
C       3.81875136      -1.40881861       0.78984599 
C       4.62100857      -0.26203804       0.76993041 
C       4.05324066       0.99633037       0.55902207 
C       2.66828845       1.08726913       0.37476516 
C       1.87656769       2.30408592       0.11917024 
C       2.41780871       3.58265989      -0.00709320 
C       1.56526649       4.65829639      -0.26129307 
C       0.19607138       4.42819760      -0.38796505 
C      -0.28164018       3.12567342      -0.25198235 
N       0.53295811       2.08624636       0.00239025 
N       1.91886596      -0.02999542       0.41135876 
H       4.23698959      -2.39623735       0.94399250 
H       5.69215851      -0.34784739       0.91502218 
H       4.67558945       1.88293716       0.53798429 
H       3.48606266       3.73403916       0.08793411 
H       1.96975237       5.65947851      -0.36164864 
H      -0.49899777       5.23409407      -0.59085796 
H      -1.33699657       2.90138679      -0.35094290 
N      -2.19205295      -0.00066557       0.07188337 
C      -2.97368209       0.86400975       0.77824369 
C      -4.35000703       0.79368406       0.74599173 
C      -4.94857958      -0.21481055      -0.03158117 
C      -6.34920453      -0.40962189      -0.15623153 
C      -6.82564642      -1.43464722      -0.94396572 
C      -5.93560815      -2.30392115      -1.63595967 
C      -4.57282891      -2.14255195      -1.53742581 
C      -4.05420529      -1.09114019      -0.73208281 
N      -2.70155188      -0.95790075      -0.66458818 
H      -2.44010135       1.60522485       1.36091881 
H      -4.95021668       1.49825946       1.31124750 
H      -7.02368881       0.25518676       0.37365903 
H      -7.89548335      -1.58768326      -1.04293471 
H      -6.34410666      -3.10147970      -2.24774992 
H      -3.87880080      -2.79406320      -2.05779271 
N      -0.30371022       0.16853160       2.29239635 
C      -0.93763183      -0.85540221       2.90877071 
C      -1.17610590      -0.86900481       4.27906690 
C      -0.74977223       0.21327326       5.05149419 
C      -0.09916284       1.27336408       4.41829026 
C       0.10325275       1.21607623       3.04258043 
H      -1.25015029      -1.67630224       2.27433944 
H      -1.68739940      -1.71549761       4.72299645 
H      -0.92162669       0.22998045       6.12261833 
H       0.24969712       2.13697438       4.97279551 
H       0.60486438       2.02342301       2.52334203 
O       0.10526507      -0.10011456      -1.71523904 
H       0.18486672       0.77265159      -2.13495782 
