52
Properties=species:S:1:pos:R:3 pbc="F F F"
Cr      -0.11575794      -1.18957902       0.15227705 
O      -2.38788619      -1.45231480       3.51626528 
C      -1.91243423      -1.42375587       2.36865396 
O      -0.71034810      -1.00482621       2.07251051 
C      -2.71539817      -1.87314877       1.17317524 
C      -4.02799959      -2.34201244       1.15275154 
C      -4.57506880      -2.71780334      -0.08029456 
C      -3.81331139      -2.62995920      -1.25208505 
C      -2.50618979      -2.15608230      -1.15239694 
C      -1.48876667      -2.00605849      -2.25559045 
O      -0.32564255      -1.58519243      -1.84860489 
O      -1.77335912      -2.27631321      -3.43678573 
N      -2.01230263      -1.78920726       0.03634240 
H      -4.59862045      -2.41135080       2.07128211 
H      -5.59464226      -3.08426806      -0.12746847 
H      -4.21663151      -2.92402961      -2.21388552 
N       1.84915421      -0.45228444       0.40158016 
C       2.10745339       0.59562578       1.24961189 
C       3.37524832       1.08709455       1.43980152 
C       4.46934151       0.51333250       0.73831344 
C       5.80953262       0.95808078       0.87903619 
C       6.81761449       0.34474657       0.16194425 
C       6.53776119      -0.73037835      -0.72172451 
C       5.24585836      -1.18478123      -0.88073357 
C       4.18993718      -0.57230128      -0.15342602 
C       2.84984385      -1.00855313      -0.27375798 
H       1.24817690       1.00839474       1.76546876 
H       3.53869381       1.91203905       2.12521484 
H       6.02606973       1.77981554       1.55472745 
H       7.84230439       0.68601109       0.27256319 
H       7.35043086      -1.19417920      -1.27146621 
H       5.01774994      -2.00745591      -1.55186666 
H       2.59798809      -1.83542366      -0.93086364 
N      -0.67392474       0.83763329      -0.28316477 
C      -0.05250616       1.42582254      -1.35915221 
C      -0.26975878       2.73361469      -1.71496315 
C      -1.16796004       3.53357074      -0.95941417 
C      -1.45006780       4.89240536      -1.25445671 
C      -2.33809684       5.59755176      -0.46625755 
C      -2.97904695       4.98489716       0.64224507 
C      -2.72373714       3.66644105       0.95481065 
C      -1.81405649       2.91854186       0.15982892 
C      -1.51667915       1.56460736       0.44411344 
H       0.62543159       0.78938823      -1.91515742 
H       0.24716126       3.15299758      -2.57176928 
H      -0.96084538       5.36307081      -2.10167189 
H      -2.55258706       6.63731375      -0.69346356 
H      -3.67241050       5.56347997       1.24414793 
H      -3.20628282       3.18579546       1.80064731 
H      -1.98728949       1.08091838       1.29325356 
O       0.48323752      -2.95932341       0.48364022 
H       0.41241750      -3.46016016      -0.34684393 
