47
Properties=species:S:1:pos:R:3 pbc="F F F"
Cr       0.05006029       0.15341578       0.07534040 
O       1.63588893      -3.60680008       0.03137403 
C       1.39292483      -2.38760774       0.06210131 
O       0.19836174      -1.87002108       0.00286444 
C       2.50439326      -1.37431111       0.17601279 
C       3.86658113      -1.64137668       0.27154685 
C       4.73916313      -0.55208314       0.38139928 
C       4.24807992       0.75606289       0.39078538 
C       2.86611047       0.95296228       0.28605547 
C       2.13331608       2.23741622       0.27593899 
C       2.73149681       3.49490607       0.34703377 
C       1.92108622       4.63237138       0.33358211 
C       0.53659206       4.48807427       0.24833266 
C      -0.00125600       3.20414731       0.17545646 
N       0.77390259       2.10655445       0.18747291 
N       2.04815447      -0.11279306       0.18449511 
H       4.22747188      -2.66282643       0.26281934 
H       5.80729294      -0.72124968       0.46158897 
H       4.92566948       1.59627449       0.47953765 
H       3.80895504       3.58608523       0.41065035 
H       2.37136885       5.61738869       0.38915969 
H      -0.12328454       5.34734451       0.23687864 
H      -1.06894733       3.03006042       0.10506197 
O      -1.81354006       0.49266905      -0.06580091 
H      -2.19091726       0.77305155       0.78408922 
N      -0.11454052       0.01572246       2.17569819 
C       0.54139703       0.78257435       3.07375068 
C       0.37433978       0.62505347       4.44584064 
C      -0.50216862      -0.35484990       4.91437006 
C      -1.18333071      -1.14592177       3.98718238 
C      -0.96455043      -0.93354796       2.63051445 
H       1.21158620       1.53748134       2.68164490 
H       0.92497911       1.26514386       5.12542846 
H      -0.65229105      -0.49871179       5.97921200 
H      -1.87531490      -1.91886426       4.30098317 
H      -1.46869150      -1.52452923       1.87513324 
N       0.10545352       0.17003952      -2.02866432 
C       0.90380762       0.93422374      -2.80452869 
C       0.84966559       0.89065060      -4.19409175 
C      -0.05929664       0.02942135      -4.81062367 
C      -0.88425333      -0.76194469      -4.00898040 
C      -0.77372391      -0.66553430      -2.62616446 
H       1.59849289       1.59461796      -2.30097177 
H       1.51156642       1.52512969      -4.77214760 
H      -0.12351797      -0.02424987      -5.89233989 
H      -1.60544125      -1.44695517      -4.43969219 
H      -1.39322527      -1.26014898      -1.96589933 
