56
Properties=species:S:1:pos:R:3 pbc="F F F"
Cr      -0.43538422       0.39465738      -0.51572071 
O      -0.16818915       2.30532163      -0.14093382 
C       0.91966322       3.08320266      -0.13618336 
C       0.73552153       4.44113881       0.22108140 
C       1.79178889       5.34385645       0.25465670 
C       3.09524883       4.93555979      -0.07151232 
C       3.31497525       3.61112109      -0.42588270 
C       2.26216809       2.67295665      -0.46267411 
C       2.48882078       1.29351885      -0.82785163 
N       3.63993870       0.64353570      -1.23301892 
C       3.32986233      -0.69930849      -1.50224588 
C       3.98547348      -1.86128759      -1.94468019 
C       3.16912791      -2.99820127      -2.06870945 
C       1.77597356      -3.04851025      -1.78883690 
C       1.12133220      -1.88627957      -1.34620536 
O      -0.16479249      -1.66088277      -1.01219191 
C       1.97018018      -0.78293973      -1.22864457 
N       1.48993770       0.42261376      -0.81895101 
H      -0.27218252       4.76129609       0.47051038 
H       1.59960699       6.37550508       0.53610500 
H       3.91969170       5.64040030      -0.04769482 
H       4.31968124       3.28348978      -0.68009721 
H       4.54965160       1.07926680      -1.32930681 
H       5.04229050      -1.89652601      -2.18237410 
H       3.63910608      -3.91709640      -2.40914356 
H       1.23843226      -3.98266464      -1.92297805 
N      -2.52268691       0.31398176      -0.05416909 
C      -3.33866344       1.36567782      -0.38338313 
C      -4.68926627       1.35453505      -0.13342374 
C      -5.28682772       0.21946795       0.47752090 
C      -6.67397151       0.12012337       0.76121148 
C      -7.17570114      -1.02033970       1.35644863 
C      -6.32398327      -2.10467102       1.69398067 
C      -4.97211339      -2.03790192       1.43120693 
C      -4.43024872      -0.87600500       0.81847709 
C      -3.05029712      -0.75817084       0.52821532 
H      -2.84880054       2.20871262      -0.85588681 
H      -5.29797350       2.21017896      -0.40688608 
H      -7.32720480       0.94833541       0.50378019 
H      -8.23733976      -1.09378726       1.57171219 
H      -6.74574124      -2.98900892       2.16089177 
H      -4.30966927      -2.86064759       1.68367929 
H      -2.37025754      -1.56732976       0.77948431 
N      -0.12158608      -0.04260141       1.57637390 
C       0.51238106      -1.15274582       2.00745228 
C       0.67618172      -1.44082220       3.36040173 
C       0.16078440      -0.55423950       4.30743787 
C      -0.49906235       0.59394242       3.86328342 
C      -0.61864678       0.81404715       2.49448464 
H       0.89313066      -1.81815806       1.24156159 
H       1.19667226      -2.34491879       3.65578104 
H       0.27018184      -0.75324813       5.36855083 
H      -0.91728124       1.31146857       4.56019113 
H      -1.11785212       1.69365545       2.10346438 
O      -0.87226524       0.79858795      -2.33908142 
H      -1.06412362      -0.05451762      -2.76486542 
