52
Properties=species:S:1:pos:R:3 pbc="F F F"
Cr       0.00000000       0.00000000       0.00000000 
O       1.97423500       3.44631200      -0.80292300 
C       1.66286100       2.33608300      -0.40353800 
O       0.46854700       2.07838400      -0.03021100 
C       2.56714800       1.13148500      -0.55585200 
C       3.73313800       1.12415700      -1.33033400 
C       4.33784800      -0.10561500      -1.60912500 
C       3.70918400      -1.28738300      -1.19968700 
C       2.52717000      -1.19743400      -0.44393500 
C       1.68635300      -2.35398600      -0.13086000 
O       0.36859000      -2.07838400       0.03021100 
O       2.06234300      -3.50086800      -0.31419800 
N       2.10000000       0.00000000       0.00000000 
H       4.13109200       2.03641000      -1.75583900 
H       5.22856000      -0.14760600      -2.22238400 
H       4.10184100      -2.24499300      -1.51721600 
O      -2.08000000       0.00000000       0.00000000 
H      -3.50051500       0.00000000       0.00000000 
N       0.00000000       0.00000000       2.10000000 
C       1.18062500      -0.01225200       2.80628700 
C       1.20449300      -0.01087500       4.20270500 
C       0.00544700       0.00138500       4.91256800 
C      -0.00557400       0.00007500       6.31697900 
C      -1.22262800       0.00922800       7.00559600 
C      -2.42862400       0.02161800       6.30087900 
C      -2.42486400       0.02366100       4.90257200 
C      -1.20698600       0.01277200       4.20291000 
C      -1.17828900       0.01367600       2.80014100 
H       2.13479500      -0.02289300       2.31579600 
H       2.15617800      -0.02054400       4.72024500 
H       0.92097500      -0.00948000       6.87754000 
H      -1.23015700       0.00957500       8.08766300 
H      -3.36929300       0.02922400       6.83723500 
H      -3.36824100       0.03120400       4.37097900 
H      -2.11767400       0.02293500       2.29259200 
N       0.00000000       0.00000000      -2.10000000 
C       0.71784200      -0.89975400      -2.85465200 
C       0.72850800      -0.87994100      -4.23787100 
C      -0.04389600       0.04791300      -4.91040500 
C      -0.05553600       0.06110700      -6.31088000 
C      -0.86086300       0.97313800      -6.98700600 
C      -1.65408600       1.87184600      -6.26717900 
C      -1.63629200       1.87171400      -4.86430300 
C      -0.82617600       0.95887600      -4.17037000 
C      -0.77749300       0.92316900      -2.75583400 
H       1.29842400      -1.67900700      -2.43583200 
H       1.32856600      -1.60734600      -4.77479000 
H       0.55187300      -0.63748600      -6.87721300 
H      -0.87208800       0.97521800      -8.06970000 
H      -2.28325100       2.56985400      -6.80268200 
H      -2.25878800       2.57517400      -4.32723600 
H      -1.36994800       1.62068400      -2.17861900 
