36
Properties=species:S:1:pos:R:3 pbc="F F F"
Cr       0.00000000       0.00000000       0.00000000 
O       1.96473100       3.45676400       0.69462500 
C       1.66781400       2.33137400       0.32829800 
O       0.48482600       2.04682300      -0.06170600 
C       2.56837900       1.13724700       0.53671500 
C       3.74445600       1.13664000       1.29671500 
C       4.32788100      -0.09911700       1.60823500 
C       3.65427200      -1.28125800       1.26236300 
C       2.46457200      -1.19027800       0.51362000 
C       1.57523400      -2.33680900       0.30892500 
O       0.27434400      -2.04682300       0.06170600 
O       1.91001600      -3.47518400       0.59585100 
N       2.10000000       0.00000000       0.00000000 
H       4.16243400       2.05465600       1.68901700 
H       5.22281000      -0.14079000       2.21527000 
H       4.01691100      -2.23255100       1.63069300 
C      -4.40015700       0.20762600      -0.57214300 
C      -3.06905800       0.04767900      -0.94964300 
N      -2.10000000       0.00000000       0.00000000 
C      -2.39536300       0.11697600       1.32975500 
C      -1.34244000       0.07662300       2.38780700 
N       0.00001500       0.00000000       2.10000000 
C       0.93190700      -0.04655300       3.07059700 
C       0.53778100      -0.00369100       4.40660600 
C      -0.82113800       0.08538000       4.69954700 
N      -1.72968700       0.12364600       3.69199200 
N      -3.69597300       0.26775800       1.70363000 
C      -4.69593500       0.31539800       0.78534400 
H      -5.18617800       0.24488100      -1.31515000 
H      -2.80786800      -0.04265700      -1.99502100 
H       1.97390200      -0.10871300       2.85855700 
H       1.27227400      -0.03661700       5.20094500 
H      -1.15492400       0.12212500       5.72808400 
H      -5.72039000       0.43805200       1.11057200 
O       0.00000000       0.00000000      -2.08000000 
H       0.00000000       0.00000000      -3.50051500 
