59
Properties=species:S:1:pos:R:3 pbc="F F F"
Cr      -0.01775896      -0.21403660       0.11389606 
O       1.74641183       3.45152226       0.22118358 
C       1.44806521       2.24519788       0.19703485 
O       0.22875727       1.78534143       0.13845836 
C       2.51166623       1.17733392       0.23542105 
C       3.88763841       1.37399001       0.30070012 
C       4.70813332       0.24007857       0.32794573 
C       4.15279189      -1.04170500       0.29078944 
C       2.76020305      -1.16633133       0.22639255 
C       1.96558264      -2.41151645       0.18013824 
C       2.50381918      -3.69720343       0.19238894 
C       1.63948685      -4.79343808       0.14457253 
C       0.26273677      -4.57931002       0.08513016 
C      -0.21322467      -3.26862868       0.07568457 
N       0.61359792      -2.21071048       0.12207022 
N       1.99351766      -0.05948193       0.20058121 
H       4.29798768       2.37615796       0.32887632 
H       5.78538764       0.35384306       0.37833512 
H       4.78939447      -1.91750846       0.31226357 
H       3.57674184      -3.84159980       0.23841382 
H       2.04215873      -5.80027975       0.15365067 
H      -0.43784168      -5.40483346       0.04666381 
H      -1.27219345      -3.04133642       0.02940644 
O      -1.91049826      -0.40408161      -0.01007174 
H      -2.27786463      -0.78783819       0.80301876 
N      -0.13682096      -0.19652055       2.21852109 
C       0.58040610      -1.00892692       3.06245889 
C       0.44018337      -0.95949995       4.42696815 
C      -0.47452188      -0.04766782       5.01534895 
C      -0.68740090       0.05815368       6.41384165 
C      -1.60206315       0.96990528       6.90231910 
C      -2.33710120       1.81111755       6.02615554 
C      -2.14994364       1.73351056       4.66257341 
C      -1.21614350       0.80172131       4.13353352 
C      -0.99613953       0.67711938       2.74287737 
H       1.26938698      -1.70246693       2.59901477 
H       1.02862822      -1.62320458       5.05156713 
H      -0.12645104      -0.58481423       7.08503631 
H      -1.76606368       1.04873211       7.97259114 
H      -3.05009101       2.51761120       6.43867219 
H      -2.70604237       2.37078025       3.98159787 
H      -1.54062980       1.30583868       2.04577586 
N       0.04509564      -0.17274673      -1.99153404 
C       0.84956512      -0.95212758      -2.78533965 
C       0.81273790      -0.88960493      -4.15601899 
C      -0.08212408       0.00217051      -4.80281016 
C      -0.18851313       0.12179305      -6.21241371 
C      -1.09135311       1.01124505      -6.76026769 
C      -1.91988890       1.81554772      -5.93437171 
C      -1.83745242       1.72367226      -4.56129081 
C      -0.91768652       0.81467797      -3.97167296 
C      -0.80098854       0.67793528      -2.56941697 
H       1.52070466      -1.63199054      -2.27745027 
H       1.46706844      -1.52746415      -4.74074868 
H       0.44379872      -0.49323782      -6.84530098 
H      -1.17337992       1.10076154      -7.83910400 
H      -2.62115373       2.50517412      -6.39302206 
H      -2.46555516       2.33301349      -3.91841866 
H      -1.41960390       1.27689736      -1.90921298 
