46
Properties=species:S:1:pos:R:3 pbc="F F F"
Cr       0.07887836       0.31228585       0.08754143 
O       1.40206760      -3.51574907       0.67478446 
C       1.24464994      -2.30396499       0.44475137 
O       0.08621104      -1.72023075       0.29319283 
C       2.42704560      -1.37555040       0.29688533 
C       3.78270396      -1.69983027       0.32485124 
C       4.71052700      -0.66709803       0.13896893 
C       4.28103392       0.65084053      -0.06246528 
C       2.90926338       0.89809487      -0.06455441 
C       2.20179195       2.22196852      -0.22755951 
O       0.90311842       2.14860188      -0.09569990 
O       2.83041739       3.27039757      -0.44990086 
N       2.04270450      -0.10714869       0.10998401 
H       4.09963574      -2.72401428       0.48243834 
H       5.77187294      -0.88983971       0.15183991 
H       4.98595287       1.46070191      -0.20871947 
O      -1.78835187       0.70786773       0.13052499 
H      -2.16172377       0.78559606      -0.76234765 
N       0.04869429       0.42506630       2.19656555 
C       0.81623007       1.28453263       2.94309390 
C       0.72271438       1.35624022       4.31094794 
C      -0.19704833       0.52707313       5.00465491 
C      -0.36135868       0.54296235       6.41390148 
C      -1.28437663      -0.29462187       7.00783545 
C      -2.07753876      -1.17896656       6.23023174 
C      -1.93986926      -1.21787077       4.85903812 
C      -0.99764130      -0.36520739       4.22249318 
C      -0.82265434      -0.36582529       2.81954060 
H       1.50109709       1.91693465       2.39432590 
H       1.35119215       2.05198481       4.85681986 
H       0.24387809       1.21903156       7.00999293 
H      -1.40969635      -0.28052204       8.08618361 
H      -2.79502452      -1.82595142       6.72461008 
H      -2.54018137      -1.88940909       4.25256961 
H      -1.41342627      -1.02884102       2.19666185 
N       0.04872883       0.20129298      -2.01987199 
C      -0.30470542       1.31755994      -2.69720604 
C      -0.36580422       1.35416165      -4.08616019 
C      -0.04862154       0.20214204      -4.80855416 
C       0.31380844      -0.95044103      -4.10971263 
C       0.34880049      -0.91451364      -2.71938774 
H      -0.53611370       2.18846746      -2.09558559 
H      -0.65563015       2.27275728      -4.58324461 
H      -0.08455985       0.20239639      -5.89291813 
H       0.56620437      -1.87002236      -4.62492246 
H       0.61569951      -1.79193165      -2.14405592 
