59
Properties=species:S:1:pos:R:3 pbc="F F F"
Cr       0.07366518       0.14757207       0.29055828 
O       1.91138848      -3.46395464       0.30736734 
C       1.58446124      -2.26540781       0.30733339 
O       0.35471896      -1.83471830       0.23099645 
C       2.61736764      -1.17160591       0.39435479 
C       3.99807108      -1.33500903       0.44287242 
C       4.79137287      -0.18285559       0.49630757 
C       4.20360687       1.08402545       0.49438467 
C       2.80745465       1.17679133       0.44511423 
C       1.99018327       2.40340313       0.41965524 
C       2.51136131       3.69648509       0.43002861 
C       1.63350726       4.78135352       0.39847760 
C       0.25976105       4.54639385       0.35461609 
C      -0.19678949       3.22910701       0.34615926 
N       0.64288831       2.18014325       0.38199039 
N       2.06853066       0.05298889       0.40485590 
H       4.43204652      -2.32760784       0.43514294 
H       5.87149846      -0.27097572       0.53458033 
H       4.81731031       1.97599071       0.52784418 
H       3.58325736       3.85097399       0.46024425 
H       2.02143314       5.79400674       0.40610021 
H      -0.45463790       5.36044654       0.32555064 
H      -1.25529053       3.00029177       0.30710397 
N      -2.02978048       0.02737872       0.26894700 
C      -2.82598910       0.74086384       1.13201643 
C      -4.19258779       0.61251246       1.14539924 
C      -4.82758520      -0.29346265       0.25427000 
C      -6.23176278      -0.49002677       0.20546344 
C      -6.76973656      -1.39088791      -0.69241979 
C      -5.93910246      -2.13054976      -1.57431785 
C      -4.57093562      -1.96172037      -1.55064028 
C      -3.99163550      -1.04034190      -0.63685818 
C      -2.59472992      -0.82782072      -0.57957730 
H      -2.30946987       1.41887444       1.80163369 
H      -4.78379860       1.20121089       1.83887550 
H      -6.86924491       0.07447979       0.87893006 
H      -7.84464932      -1.53894202      -0.72840472 
H      -6.39002873      -2.83148082      -2.26936240 
H      -3.92399765      -2.52020433      -2.22042870 
H      -1.92841727      -1.36562692      -1.24599798 
N      -0.04766167      -0.01152310       2.43073316 
C       0.48967872       0.90586499       3.30096382 
C       0.37634890       0.78969759       4.66452744 
C      -0.32266365      -0.30947757       5.22773295 
C      -0.49003886      -0.50479178       6.62310511 
C      -1.18817216      -1.60323798       7.08401276 
C      -1.74587133      -2.54813434       6.18287582 
C      -1.59871332      -2.38604221       4.82176636 
C      -0.88451411      -1.26392749       4.32082478 
C      -0.70842432      -1.05360660       2.93368327 
H       1.01803967       1.73867784       2.85554929 
H       0.82185322       1.54157302       5.30744168 
H      -0.06464352       0.21650394       7.31409022 
H      -1.31581846      -1.75159761       8.15191264 
H      -2.28992017      -3.40151623       6.57466810 
H      -2.01893742      -3.10139343       4.12111330 
H      -1.11996806      -1.76361823       2.22318769 
O       0.12955882       0.21692490      -1.59613257 
H      -0.16920020       1.08758187      -1.90863170 
