61
Properties=species:S:1:pos:R:3 pbc="F F F"
Cr      -0.31628508       0.25749412       0.39378009 
O      -0.04098498       2.21956575       0.37202953 
C       1.05385617       2.99128093       0.41654779 
C       0.85229868       4.39254191       0.37775290 
C       1.91254890       5.29057493       0.40882176 
C       3.23893118       4.83361953       0.48070392 
C       3.47713976       3.46678838       0.52294204 
C       2.41953194       2.53334821       0.49418423 
C       2.66431835       1.10949563       0.54743403 
N       3.84635961       0.40028568       0.63339533 
C       3.54739932      -0.97173994       0.66886305 
C       4.23654978      -2.19419729       0.74701579 
C       3.42221095      -3.33928885       0.74707459 
C       2.00231562      -3.34210034       0.67499112 
C       1.31443732      -2.11855031       0.59615604 
O      -0.00092640      -1.84110758       0.51817600 
C       2.16030095      -1.00657361       0.60055477 
N       1.65005522       0.25404533       0.52778407 
H      -0.17206644       4.74944305       0.32026611 
H       1.70650452       6.35675482       0.37563287 
H       4.06648313       5.53481342       0.50377256 
H       4.49903231       3.10077937       0.57855660 
H       4.77107231       0.81321519       0.66925456 
H       5.31622570      -2.26888874       0.80382957 
H       3.91644551      -4.30538620       0.80686917 
H       1.46988479      -4.28879056       0.68122008 
O      -2.23191173       0.19075308       0.25016742 
H      -2.55438087      -0.07823396       1.13114797 
N      -0.53198415       0.30633513       2.51860178 
C       0.38449667       0.87671857       3.34666858 
C       0.22147275       0.89113651       4.71643407 
C      -0.92983913       0.29514019       5.26174897 
C      -1.22874764       0.23876208       6.64889679 
C      -2.39226591      -0.36699107       7.06924335 
C      -3.30129879      -0.93896250       6.13452331 
C      -3.04229338      -0.90214202       4.78385486 
C      -1.84786142      -0.28212288       4.32357410 
N      -1.62067178      -0.25966107       2.98250900 
H       1.24381890       1.31753893       2.86017595 
H       0.96787938       1.35484700       5.35234030 
H      -0.53253728       0.67704909       7.35660411 
H      -2.62675245      -0.41273944       8.12781359 
H      -4.20899117      -1.40841851       6.49927731 
H      -3.72343644      -1.33233806       4.05736994 
N      -0.20456610       0.14061352      -1.69963682 
C       0.61470005       0.95715094      -2.43866552 
C       0.69444365       0.87595245      -3.80690538 
C      -0.08867124      -0.07936105      -4.50751692 
C      -0.06868810      -0.22868419      -5.91846491 
C      -0.86423840      -1.18312219      -6.52094124 
C      -1.70819244      -2.02503356      -5.74994754 
C      -1.74832347      -1.90439300      -4.37702539 
C      -0.93990533      -0.92971538      -3.73191803 
C      -0.94825072      -0.76649513      -2.32676063 
H       1.19839115       1.67638748      -1.87885922 
H       1.35658029       1.54274980      -4.34926857 
H       0.57618626       0.41436840      -6.50961194 
H      -0.84819919      -1.29522493      -7.60074629 
H      -2.32317875      -2.76608945      -6.25038615 
H      -2.39003643      -2.54125084      -3.77544192 
H      -1.58296194      -1.38954677      -1.70572048 
