55
Properties=species:S:1:pos:R:3 pbc="F F F"
Cr       0.00000000       0.00000000       0.00000000 
O      -0.10614700       2.03598200      -0.17570700 
C       0.95497700       2.86889700       0.05853300 
C       0.71446900       4.18749300       0.45883500 
C       1.77826900       5.08335900       0.61084800 
C       3.08937200       4.67332700       0.34706800 
C       3.34876300       3.36004700      -0.05484800 
C       2.29575900       2.44602400      -0.17099100 
C       2.52467000       1.07285400      -0.63017900 
N       3.09181700       0.73791000      -1.84298400 
C       2.71359900      -0.55224500      -2.04640400 
C       2.79638100      -1.40493600      -3.15526700 
C       2.08807800      -2.64822100      -3.08262100 
C       1.28504100      -2.98291500      -1.94278100 
C       1.22979300      -2.05887500      -0.88401200 
O       0.54175500      -2.03598200       0.17570700 
C       2.00402700      -0.92199500      -0.97671900 
N       2.10000000       0.00000000       0.00000000 
H      -0.29934600       4.52547200       0.63200800 
H       1.58429100       6.10424700       0.91357200 
H       3.90553900       5.37697900       0.44842700 
H       4.36640300       3.05361400      -0.26347900 
H       3.52833100       1.37369200      -2.54697600 
H       3.33164700      -1.11600500      -4.04931200 
H       2.10975600      -3.32156800      -3.92930700 
H       0.69956800      -3.89269900      -1.92031500 
O      -2.08000000       0.00000000       0.00000000 
H      -3.50051500       0.00000000       0.00000000 
N       0.00000000       0.00000000       2.10000000 
C       1.01148100       0.58568000       2.80716300 
C       0.99760200       0.56939400       4.19819800 
C      -0.06989300      -0.03677400       4.85772900 
C      -0.13710500      -0.07246500       6.25793100 
C      -1.22252100      -0.68714700       6.88953700 
C      -2.24243600      -1.26829100       6.12700200 
C      -2.18106400      -1.23849700       4.72878200 
C      -1.09714400      -0.62655000       4.08938000 
N      -1.02287900      -0.58725100       2.73180500 
H       1.83363100       1.06413000       2.29778300 
H       1.80297000       1.03712400       4.74971800 
H       0.64567400       0.37267000       6.86137600 
H      -1.27294600      -0.71403200       7.97069400 
H      -3.08209800      -1.73976300       6.62145700 
H      -2.97515200      -1.68813300       4.14695300 
N       0.00000000       0.00000000      -2.10000000 
C      -0.67481900      -1.00078500      -2.76232000 
C      -0.73752400      -1.04055700      -4.16276200 
C      -0.14923200      -0.02460300      -4.90853000 
C       0.43973600       1.04151900      -4.25092800 
C       0.47217400       1.05392800      -2.85896500 
H      -1.13534700      -1.80225600      -2.20199100 
H      -1.22936100      -1.86012300      -4.66769300 
H      -0.16728900      -0.04735300      -5.99030200 
H       0.87890700       1.85948400      -4.80972200 
H       0.92887200       1.91288600      -2.40984400 
