64
Properties=species:S:1:pos:R:3 pbc="F F F"
Cr       0.00000000       0.00000000       0.00000000 
O       0.26488000       3.46517000      -1.58302000 
C       0.74669000       2.47123000      -1.06278000 
O       0.18763000       1.97939000      -0.02772000 
C       1.99680000       1.85077000      -1.61302000 
C       2.64681000       2.42040000      -2.73357000 
C       3.81290000       1.83428000      -3.26526000 
C       4.34618000       0.67137000      -2.69153000 
C       3.68432000       0.12768000      -1.59565000 
N       4.02234000      -0.99316000      -0.86658000 
C       3.02138000      -1.13384000       0.17320000 
C       2.42601000      -2.55309000       0.13271000 
C       3.35873000      -3.61404000       0.20324000 
C       2.95340000      -4.94892000       0.16029000 
C       1.60252000      -5.26490000       0.05748000 
C       0.65672000      -4.24450000       0.00833000 
C       1.04919000      -2.90062000       0.04902000 
O       0.07742000      -1.97939000       0.02772000 
N       2.10000000       0.00000000       0.00000000 
C       2.56339000       0.67019000      -1.06316000 
H       2.25629000       3.31636000      -3.19925000 
H       4.30002000       2.28388000      -4.12072000 
H       5.24288000       0.21318000      -3.08790000 
H       4.85871000      -1.57566000      -1.01693000 
H       4.41902000      -3.41260000       0.28616000 
H       3.69099000      -5.73985000       0.20544000 
H       1.28905000      -6.29929000       0.02343000 
H      -0.39436000      -4.49925000      -0.05752000 
N      -2.10000000       0.00000000       0.00000000 
C      -2.77028000      -0.70799000      -0.95687000 
C      -4.16648000      -0.72497000      -0.98481000 
C      -4.88286000      -0.01569000      -0.01497000 
C      -6.28639000      -0.01583000      -0.00943000 
C      -6.98304000       0.69441000       0.97323000 
C      -6.28630000       1.40761000       1.95321000 
C      -4.88837000       1.41806000       1.95441000 
C      -4.18047000       0.70891000       0.97225000 
C      -2.78051000       0.70499000       0.95238000 
H      -2.21932000      -1.26214000      -1.70384000 
H      -4.67897000      -1.28964000      -1.75439000 
H      -6.84208000      -0.56402000      -0.76068000 
H      -8.06548000       0.69104000       0.97585000 
H      -6.83058000       1.95365000       2.71289000 
H      -4.36294000       1.97564000       2.72080000 
H      -2.23145000       1.26241000       1.69847000 
N       0.00000000       0.00000000       2.10000000 
C      -0.44599000      -1.09940000       2.78474000 
C      -0.45470000      -1.12538000       4.18053000 
C      -0.01556000      -0.00763000       4.89367000 
C      -0.01987000       0.00193000       6.29744000 
C       0.41408000       1.13646000       6.99086000 
C       0.85384000       2.26341000       6.29038000 
C       0.86739000       2.26067000       4.89247000 
C       0.43466000       1.12638000       4.18753000 
C       0.44038000       1.10070000       2.78686000 
H      -0.80321000      -1.96916000       2.25566000 
H      -0.80816000      -2.01048000       4.69589000 
H      -0.35936000      -0.86194000       6.85520000 
H       0.40715000       1.14293000       8.07322000 
H       1.18458000       3.14035000       6.83174000 
H       1.21115000       3.14228000       4.36474000 
H       0.79567000       1.96797000       2.25251000 
O       0.00000000       0.00000000      -2.08000000 
H       0.00000000       0.00000000      -3.50052000 
