61
Properties=species:S:1:pos:R:3 pbc="F F F"
Cr      -0.51936634       0.34044573      -0.40754143 
O      -0.35430616       2.27741746      -0.20893411 
C       0.68909536       3.11231798      -0.27597524 
C       0.42986092       4.48398199      -0.04067993 
C       1.43685914       5.44113500      -0.08764111 
C       2.76179109       5.07524249      -0.37495535 
C       3.05308877       3.73838705      -0.61171783 
C       2.05111110       2.74672302      -0.56641182 
C       2.35136378       1.35509897      -0.81232165 
N       3.53766529       0.74227166      -1.16827697 
C       3.30695480      -0.63368792      -1.32223932 
C       4.03153862      -1.78683557      -1.66876019 
C       3.28478795      -2.97696437      -1.69228914 
C       1.89760376      -3.08615079      -1.40172136 
C       1.17317766      -1.93187451      -1.05467726 
O      -0.12215123      -1.75770831      -0.73186411 
C       1.95444785      -0.77370528      -1.03576045 
N       1.40387301       0.43175814      -0.72571631 
H      -0.59447812       4.77094967       0.17937134 
H       1.18888114       6.48199066       0.10062410 
H       3.54761911       5.82233817      -0.41252023 
H       4.07505530       3.44274390      -0.83396053 
H       4.42147712       1.22012612      -1.29876963 
H       5.08868423      -1.77836303      -1.90743996 
H       3.80883299      -3.89169418      -1.95659425 
H       1.41706910      -4.05885689      -1.45315987 
N      -2.60764100       0.32751927       0.07282687 
C      -3.37736068       1.43004239      -0.13640128 
C      -4.73044520       1.43240708       0.12823987 
C      -5.31742147       0.25066626       0.61965850 
C      -6.69545867       0.10607688       0.93110582 
C      -7.16358633      -1.09973302       1.40551870 
C      -6.28658997      -2.20564687       1.58930419 
C      -4.94599763      -2.09885595       1.29770352 
C      -4.43679391      -0.86520299       0.80676067 
N      -3.10414609      -0.79505302       0.53204327 
H      -2.84798967       2.29317728      -0.52017874 
H      -5.32442588       2.32396232      -0.04243209 
H      -7.35989332       0.95225434       0.78836674 
H      -8.21592760      -1.21518278       1.64443802 
H      -6.68664991      -3.14190205       1.96457597 
H      -4.26258774      -2.93090779       1.43107096 
N      -0.18963601       0.11674068       1.70885384 
C      -0.74285649       1.03325530       2.56936432 
C      -0.57504654       0.96750613       3.93056603 
C       0.20295976      -0.07636848       4.49862601 
C       0.43392639      -0.21760369       5.89184303 
C       1.20750463      -1.26161008       6.35930420 
C       1.78026896      -2.20462155       5.46625268 
C       1.57194216      -2.09431433       4.10752852 
C       0.78063303      -1.02878131       3.60043146 
C       0.53935677      -0.87329417       2.21384605 
H      -1.32098167       1.82265490       2.10398344 
H      -1.03465593       1.71516462       4.56879943 
H      -0.00240461       0.50315139       6.57674704 
H       1.38359782      -1.36713999       7.42546107 
H       2.38430703      -3.01513494       5.86137752 
H       2.00299046      -2.80969250       3.41327999 
H       0.95940629      -1.58453296       1.51025194 
O      -0.96774465       0.52904680      -2.25950436 
H      -0.99416958      -0.37427338      -2.61906564 
