53
Properties=species:S:1:pos:R:3 pbc="F F F"
Cr       0.00000000       0.00000000       0.00000000 
O       1.88889700       3.52565400      -0.29800700 
C       1.59028900       2.35530600      -0.12511200 
O       0.37608200       1.99489400       0.04457600 
C       2.58587900       1.22250800      -0.27775100 
C       3.89567000       1.36210200      -0.75375700 
C       4.64171900       0.19935100      -1.00638600 
C       4.04724700      -1.06275100      -0.84514700 
C       2.72891000      -1.11716600      -0.36858300 
C       1.85951400      -2.27692100      -0.26665000 
C       2.29831800      -3.59785900      -0.42242000 
C       1.37477800      -4.63563200      -0.31310400 
C       0.03586100      -4.34809100      -0.05413200 
C      -0.37100100      -3.01878000       0.07932600 
N       0.52609900      -1.99489400      -0.04457600 
N       2.10000000       0.00000000       0.00000000 
H       4.31419300       2.33810500      -0.96285900 
H       5.64998900       0.27704700      -1.39197100 
H       4.58992500      -1.95464100      -1.12612900 
H       3.33819500      -3.83067200      -0.61422100 
H       1.69710500      -5.66350100      -0.42205100 
H      -0.68381500      -5.15076800       0.04210600 
H      -1.40794600      -2.81398400       0.28928700 
N      -2.10000000       0.00000000       0.00000000 
C      -2.78027000      -0.85591600      -0.81913000 
C      -4.17526500      -0.86925600      -0.83963700 
C      -4.88326000       0.01513200      -0.02044700 
C      -6.28656300       0.02398900      -0.01335600 
C      -6.97666300       0.91955800       0.80891900 
C      -6.27319300       1.81006500       1.62474400 
C      -4.87464800       1.80955300       1.62606600 
C      -4.17234700       0.91251800       0.80671600 
C      -2.77169800       0.88717600       0.79365300 
H      -2.23683700      -1.53572000      -1.46038400 
H      -4.69349600      -1.56371500      -1.49015800 
H      -6.84703700      -0.65915800      -0.64057800 
H      -8.05896500       0.92354900       0.81304200 
H      -6.81291800       2.50224900       2.25838300 
H      -4.34448000       2.50537800       2.26523100 
H      -2.20935000       1.56706400       1.42136400 
N       0.00000000       0.00000000       2.10000000 
C      -0.95275800      -0.71880500       2.77285800 
C      -0.98326700      -0.73778500       4.16997300 
C      -0.02236700      -0.02834100       4.88564600 
C       0.95392000       0.68913700       4.20060200 
C       0.94841200       0.69337200       2.80496400 
H      -1.69968700      -1.27760300       2.22905100 
H      -1.74575500      -1.30015500       4.69290000 
H      -0.03110200      -0.03514200       5.96806900 
H       1.71046600       1.24033000       4.74446100 
H       1.71333000       1.25424900       2.29669000 
O       0.00000000       0.00000000      -2.08000000 
H       0.00000000       0.00000000      -3.50051500 
