65
Properties=species:S:1:pos:R:3 pbc="F F F"
Cr       0.04354051       0.17497059      -0.06342562 
C       0.07811409       4.56093623      -0.22443291 
C       1.44204768       4.84287633      -0.16877980 
C       2.35327056       3.79142180      -0.06168089 
C       1.87490970       2.48241219      -0.00559835 
C       2.73293197       1.28689494       0.09422296 
C       4.12502988       1.27543231       0.21201141 
C       4.77698656       0.04367850       0.29277358 
C       4.05073002      -1.14657624       0.24831425 
C       2.66031242      -1.07581654       0.12659150 
C       1.73999662      -2.22131038       0.04064425 
C       2.15372393      -3.55342221       0.03338555 
C       1.19591865      -4.56140792      -0.08036387 
C      -0.14942879      -4.21266892      -0.18873128 
C      -0.49674709      -2.86301791      -0.17552536 
N       0.42139939      -1.88840153      -0.05911624 
N       2.04408570       0.12451677       0.06376563 
N       0.53674546       2.21525199      -0.04751541 
C      -0.33522784       3.23144691      -0.16493158 
H      -0.66162383       5.34708598      -0.31638885 
H       1.79805754       5.86621140      -0.21309932 
H       3.41767305       3.98825328      -0.02651452 
H       4.68947474       2.19894162       0.24160792 
H       5.85649829       0.01225876       0.38874379 
H       4.55403481      -2.10385918       0.30554654 
H       3.20640349      -3.79744579       0.10699132 
H       1.50085147      -5.60197684      -0.08904541 
H      -0.92500222      -4.96289915      -0.28612350 
H      -1.52814283      -2.54412169      -0.26876374 
H      -1.38466807       2.96947848      -0.22056702 
N      -2.08370317       0.22234697      -0.06894801 
C      -2.80343499       0.95097660       0.83228313 
C      -4.18162687       0.97914371       0.81188332 
C      -4.85213364       0.22185305      -0.16488022 
C      -6.26316020       0.15441437      -0.30194374 
C      -6.81194446      -0.62109907      -1.29959889 
C      -5.98686908      -1.35776847      -2.19629020 
C      -4.61585048      -1.31580620      -2.09074522 
C      -4.02283910      -0.52176456      -1.07000743 
N      -2.66534248      -0.49905077      -0.99819302 
H      -2.22297874       1.51013822       1.55548872 
H      -4.72800180       1.57234937       1.53696666 
H      -6.88762768       0.71766217       0.38381032 
H      -7.89003218      -0.67592089      -1.41026670 
H      -6.45251857      -1.95791131      -2.97098609 
H      -3.97119363      -1.86889022      -2.76545597 
N      -0.07414641       0.08415333       2.08679755 
C      -0.86154915      -0.87454150       2.68400103 
C      -0.96761262      -1.00615845       4.04619500 
C      -0.25048334      -0.13053155       4.90351290 
C      -0.29916303      -0.19653629       6.31957439 
C       0.43178042       0.70034721       7.07391046 
C       1.23570121       1.69383777       6.45590585 
C       1.30267490       1.78219388       5.08175758 
C       0.56112781       0.87090320       4.28301155 
C       0.60193681       0.92166282       2.87090922 
H      -1.40454017      -1.53151028       2.01567356 
H      -1.60175888      -1.78179363       4.46244939 
H      -0.91375355      -0.95501975       6.79431887 
H       0.39436310       0.64884155       8.15763623 
H       1.79891422       2.38467430       7.07483074 
H       1.91472950       2.53676036       4.59693201 
H       1.21293186       1.67847813       2.39221828 
O       0.06355300       0.21582939      -1.93780730 
H       0.85533855       0.65689173      -2.28851900 
