59
Properties=species:S:1:pos:R:3 pbc="F F F"
Cr      -0.03811717       0.21165661      -0.01792556 
C      -0.71137325      -4.07039643       0.39334420 
C       0.58933675      -4.57005637       0.45950453 
C       1.66949783      -3.69271025       0.34494884 
C       1.41894853      -2.33211185       0.16854946 
C       2.46563498      -1.30160224       0.01473637 
C       3.84506793      -1.51688826      -0.04637782 
C       4.68046992      -0.41301734      -0.23246474 
C       4.14846755       0.87302792      -0.35031617 
C       2.76172737       1.02732728      -0.27176774 
C       2.01420295       2.29949609      -0.32767660 
C       2.60061095       3.55239987      -0.50336052 
C       1.78841582       4.68824252      -0.49143028 
C       0.41468278       4.54783712      -0.29573896 
C      -0.11170142       3.26777927      -0.13276593 
N       0.66508872       2.17147178      -0.15605860 
N       1.96907457      -0.05101453      -0.09489400 
N       0.14183145      -1.85295716       0.11214979 
C      -0.89572816      -2.69954411       0.22210161 
H      -1.57354538      -4.72152676       0.47445133 
H       0.76653931      -5.63096768       0.59764842 
H       2.68743401      -4.05981481       0.39322331 
H       4.25850483      -2.51391768       0.04320457 
H       5.75394703      -0.55592799      -0.28639051 
H       4.79790108       1.72750612      -0.49274758 
H       3.67105409       3.64160667      -0.64304127 
H       2.22903822       5.66978086      -0.62785381 
H      -0.24563912       5.40655390      -0.26975797 
H      -1.17109526       3.09572397       0.02008038 
H      -1.88276426      -2.25493106       0.16957873 
O      -1.88503574       0.55717027       0.08979268 
H      -2.38079845       0.12174909      -0.62356622 
N       0.05589218       0.25830460       2.09766319 
C       0.92247823       1.02591586       2.81648326 
C       0.92190552       1.02930197       4.19531436 
C      -0.00576227       0.21393873       4.86784677 
C      -0.12656592       0.12192567       6.27929221 
C      -1.07646498      -0.71270110       6.82631421 
C      -1.93948176      -1.48640766       5.99937328 
C      -1.84841240      -1.42145428       4.62840574 
C      -0.87701803      -0.56603639       4.03735260 
N      -0.82044419      -0.52342594       2.67973419 
H       1.60937159       1.63649748       2.24706195 
H       1.62199025       1.65296356       4.74032230 
H       0.53262833       0.71404866       6.90566056 
H      -1.17470813      -0.78610823       7.90457650 
H      -2.67675818      -2.13300727       6.46362764 
H      -2.49800049      -2.00206784       3.98213407 
N      -0.12838627       0.16442683      -2.12030085 
C       0.56831812      -0.71202455      -2.87741453 
C       0.52054767      -0.69669496      -4.26726020 
C      -0.27007037       0.25834796      -4.90832585 
C      -0.99086979       1.16429000      -4.12852350 
C      -0.89739064       1.08727733      -2.74344081 
H       1.17396710      -1.44285896      -2.35637761 
H       1.09715384      -1.42434772      -4.82642563 
H      -0.32364923       0.29494114      -5.99124153 
H      -1.62052083       1.92366116      -4.57748031 
H      -1.44745778       1.76641111      -2.10325093 
