43
Properties=species:S:1:pos:R:3 pbc="F F F"
Cr       0.15345653      -0.20725100      -0.02969077 
O       2.33742119      -3.64146986      -0.06240468 
C       1.89031935      -2.48323702      -0.03336165 
O       0.62232374      -2.17477183      -0.05106124 
C       2.80950521      -1.29102654       0.03330296 
C       4.19915506      -1.31410324       0.07893712 
C       4.87170800      -0.08864666       0.15439418 
C       4.15865575       1.11207006       0.18438036 
C       2.76069976       1.06595965       0.13481234 
C       1.82552689       2.20426294       0.15026844 
C       2.21445214       3.54005234       0.23371554 
C       1.23380313       4.53354692       0.23097808 
C      -0.10830272       4.16711282       0.14258548 
C      -0.43274641       2.81401199       0.06353210 
N       0.50723049       1.85215784       0.07106800 
N       2.13888548      -0.12721696       0.05864804 
H       4.73070438      -2.25782300       0.05735469 
H       5.95520061      -0.06768166       0.19174187 
H       4.68063130       2.05908701       0.24298548 
H       3.26402508       3.79967051       0.29907461 
H       1.51907375       5.57776424       0.29551454 
H      -0.89960990       4.90714991       0.13420816 
H      -1.46313048       2.48690282      -0.00685970 
C      -4.17366390       0.09186664      -0.57906457 
C      -2.81331817      -0.04532105      -0.82526342 
N      -1.93720744      -0.11362545       0.19478374 
C      -2.41851944      -0.04106622       1.45616331 
C      -1.39300582      -0.12921481       2.52554513 
N      -0.11576679      -0.24535856       2.09250856 
C       0.85013404      -0.35603136       3.02404606 
C       0.54102861      -0.34372882       4.37866309 
C      -0.80145476      -0.20657829       4.72249634 
N      -1.77476860      -0.10066993       3.80118977 
N      -3.70343725       0.09319107       1.77768596 
C      -4.57364367       0.16038808       0.75405338 
H      -4.88767411       0.14628940      -1.39114819 
H      -2.39130942      -0.10343213      -1.82206855 
H       1.86926784      -0.45381787       2.67036778 
H       1.31535650      -0.43496727       5.12971223 
H      -1.11721036      -0.18163883       5.76006071 
H      -5.61906888       0.27326832       1.02068915 
O       0.08050601      -0.19874932      -1.90047299 
H      -0.00635174       0.70728515      -2.24275445 
