57
Properties=species:S:1:pos:R:3 pbc="F F F"
Cr      -0.14401328       0.00698085       0.09203069 
O       1.57401346      -3.62741371       0.60245661 
C       1.28312009      -2.42670163       0.47415215 
O       0.06943398      -1.97324174       0.31203176 
C       2.34116991      -1.35522700       0.50433848 
C       3.70620001      -1.54236560       0.69584681 
C       4.52580861      -0.40783111       0.71028940 
C       3.97788199       0.86475242       0.53555873 
C       2.59621155       0.98247953       0.34310112 
C       1.82590403       2.21936649       0.12086308 
C       2.38615339       3.49473581       0.06038620 
C       1.55480071       4.58823989      -0.18926088 
C       0.18976960       4.37866207      -0.38062616 
C      -0.30696706       3.07800826      -0.30284250 
N       0.48621137       2.02397930      -0.04690466 
N       1.83217240      -0.12504001       0.33240164 
H       4.10774759      -2.53953265       0.83069778 
H       5.59468830      -0.51427632       0.85853539 
H       4.61252843       1.74214117       0.54739055 
H       3.45168934       3.63160555       0.20021825 
H       1.97322571       5.58750086      -0.23970659 
H      -0.48731887       5.19886934      -0.58759688 
H      -1.35965371       2.86768809      -0.45024567 
N      -2.27589110      -0.03378457       0.05834803 
C      -3.02851756       0.84364318       0.77984396 
C      -4.40576814       0.78343561       0.79056271 
C      -5.03502790      -0.22496272       0.03741069 
C      -6.44033337      -0.41129891      -0.04165998 
C      -6.94803655      -1.43595748      -0.81002189 
C      -6.08599358      -2.31250202      -1.52781461 
C      -4.71979096      -2.16001711      -1.47311900 
C      -4.16877349      -1.11027926      -0.68727544 
N      -2.81364293      -0.98986428      -0.65846734 
H      -2.47258815       1.58760628       1.33726482 
H      -4.98315213       1.49625418       1.36928062 
H      -7.09314907       0.25984004       0.50698956 
H      -8.02132678      -1.58296598      -0.87409126 
H      -6.51888523      -3.10875638      -2.12427586 
H      -4.04718499      -2.81759874      -2.01341961 
N      -0.26707411       0.11366479       2.23784152 
C      -0.97054225      -0.82669695       2.92988349 
C      -1.02643536      -0.82728055       4.30744516 
C      -0.33088479       0.17712337       5.00551954 
C      -0.29558177       0.29775996       6.41962214 
C       0.42127214       1.32310927       6.99670686 
C       1.12780742       2.26579535       6.19739407 
C       1.11458244       2.17737599       4.82441036 
C       0.38293266       1.12772093       4.20282546 
N       0.39617664       1.06961804       2.84304608 
H      -1.47170718      -1.57239426       2.32607802 
H      -1.59234201      -1.58808013       4.83415819 
H      -0.83573907      -0.42344659       7.02443259 
H       0.45250091       1.41962315       8.07719807 
H       1.68234459       3.06145457       6.68396758 
H       1.64715767       2.88636196       4.19931051 
O      -0.03750256      -0.13698243      -1.78308348 
H       0.24397102       0.70302381      -2.18220484 
