56
Properties=species:S:1:pos:R:3 pbc="F F F"
Cr       0.00000000       0.00000000       0.00000000 
O      -0.10074500       2.03382300      -0.15478800 
C       0.96104600       2.86515300       0.06743400 
C       0.72201400       4.18185500       0.47473800 
C       1.78618600       5.07652000       0.62887200 
C       3.09643500       4.66692100       0.36028700 
C       3.35393200       3.35558100      -0.05005300 
C       2.29960100       2.44301100      -0.16914500 
C       2.52590400       1.07219500      -0.62908400 
N       3.06485900       0.74011900      -1.85205600 
C       2.69336600      -0.55244600      -2.04667700 
C       2.81818900      -1.42577500      -3.13620700 
C       2.07463400      -2.65076000      -3.07968000 
C       1.21900700      -2.95277100      -1.96945400 
C       1.17550500      -2.04361400      -0.90095200 
O       0.47926200      -2.03382300       0.15478800 
C       1.97115900      -0.91607100      -0.98178600 
N       2.10000000       0.00000000       0.00000000 
H      -0.29132200       4.51795900       0.65504600 
H       1.59308000       6.09524600       0.93928400 
H       3.91331200       5.36903900       0.46587800 
H       4.37115000       3.04910700      -0.26059700 
H       3.50291300       1.37267500      -2.55804500 
H       3.38754000      -1.15543500      -4.01562300 
H       2.11030100      -3.33147500      -3.91997400 
H       0.61368300      -3.84960600      -1.96057400 
N      -2.10000000       0.00000000       0.00000000 
C      -2.77815200       0.88276900      -0.79412300 
C      -4.17216900       0.89712400      -0.81988900 
C      -4.88592900       0.00560900      -0.01346600 
C      -6.28881100       0.01233700       0.00436300 
C      -6.98315600      -0.87695800       0.83114700 
C      -6.28140300      -1.78009100       1.64018500 
C      -4.88460700      -1.80224600       1.61817000 
C      -4.17865600      -0.91037200       0.79535900 
C      -2.77944900      -0.90650800       0.76779300 
H      -2.22921600       1.58002400      -1.41558200 
H      -4.68800400       1.60772900      -1.45628000 
H      -6.84726400       0.70703900      -0.61161500 
H      -8.06446000      -0.86445300       0.84931600 
H      -6.82469600      -2.46021200       2.28069400 
H      -4.35748800      -2.50537800       2.25147000 
H      -2.21937600      -1.60518600       1.37864800 
N       0.00000000       0.00000000       2.10000000 
C       1.08930000      -0.49066800       2.77616700 
C       1.13548500      -0.48647100       4.17322500 
C       0.05202400       0.00541200       4.89383700 
C      -1.05104000       0.50753100       4.21284300 
C      -1.05199700       0.51441800       2.81650700 
H       1.93905100      -0.88848100       2.24600900 
H       2.00523200      -0.86751100       4.69270700 
H       0.06924400       0.00346600       5.97618000 
H      -1.89967900       0.89633900       4.76113800 
H      -1.91010200       0.93465500       2.31849200 
O       0.00000000       0.00000000      -2.08000000 
H       0.00000000       0.00000000      -3.50051500 
