36
Properties=species:S:1:pos:R:3 pbc="F F F"
Cr       0.06220171       0.22548298       0.22650473 
O       2.44679195       3.52932410       0.58101917 
C       1.92863819       2.40133639       0.51088313 
O       0.65185633       2.17299610       0.37636317 
C       2.76697131       1.14892712       0.58591411 
C       4.14722026       1.04673205       0.75038617 
C       4.71279021      -0.23298769       0.80832736 
C       3.90629960      -1.37343665       0.70566996 
C       2.53456345      -1.19399675       0.54112222 
C       1.46889737      -2.25239733       0.41379791 
O       0.26118500      -1.76996016       0.27052992 
O       1.74356489      -3.46236878       0.45154844 
N       2.01902855       0.04204797       0.48513493 
H       4.75544931       1.93975650       0.83205950 
H       5.78414606      -0.34219723       0.93643362 
H       4.32565428      -2.37146638       0.75214438 
C      -4.20918338       0.09437839      -0.72809858 
C      -2.82752568       0.18946293      -0.84117257 
N      -2.04823909       0.18238519       0.25590404 
C      -2.64824538       0.07780721       1.46237024 
C      -1.72568079       0.08333021       2.62484167 
N      -0.41307885       0.19108261       2.31676626 
C       0.46543001       0.22628023       3.33571984 
C       0.03495821       0.14384994       4.65445450 
C      -1.33585027       0.02028804       4.86695931 
N      -2.22352502      -0.00671770       3.85757528 
N      -3.96178784      -0.02073645       1.65891272 
C      -4.73465838      -0.01151455       0.55807249 
H      -4.84553212       0.10100767      -1.60390899 
H      -2.31206208       0.27215506      -1.79130804 
H       1.51415385       0.32089482       3.08036962 
H       0.73936821       0.17237152       5.47605145 
H      -1.74490485      -0.05722954       5.86867575 
H      -5.80391001      -0.09191517       0.72262351 
O       0.15557353       0.33658664      -1.64561947 
H       0.14488943      -0.56295230      -2.01573679 
