52
Properties=species:S:1:pos:R:3 pbc="F F F"
Cr      -0.08340865       0.25274110      -0.53399975 
O       0.51073005      -3.77700421      -1.42462321 
C       0.81649892      -2.58047270      -1.19653672 
O      -0.06077238      -1.73426727      -0.73693303 
C       2.22143476      -2.12029331      -1.41810569 
C       3.21736876      -3.00022411      -1.86487104 
C       4.55177850      -2.59044897      -2.02761698 
C       4.96281314      -1.28444653      -1.74282770 
C       3.97643987      -0.40533876      -1.29821289 
N       4.00312389       0.93069115      -0.92782714 
C       2.73903436       1.31687734      -0.57888530 
C       2.35492659       2.63641555      -0.12832598 
C       3.34412903       3.58979796       0.20600195 
C       3.00688564       4.86434717       0.63580272 
C       1.64911947       5.21325609       0.73887296 
C       0.65706866       4.29606277       0.42004548 
C       0.97045702       2.98624883      -0.01835995 
O      -0.03914323       2.17665343      -0.32199303 
N       1.90048513       0.27914044      -0.70949932 
C       2.63212251      -0.80382255      -1.14802925 
H       2.94235992      -4.02655472      -2.08310545 
H       5.28494906      -3.30924333      -2.37834819 
H       5.99468315      -0.97281384      -1.86137351 
H       4.81812618       1.53224141      -0.94901412 
H       4.39324808       3.31546419       0.14424514 
H       3.78296221       5.57669922       0.89450510 
H       1.36772278       6.20696962       1.07564667 
H      -0.39285504       4.56215586       0.49940236 
N      -2.18260097       0.19355311      -0.19976583 
C      -2.75235743      -0.79753615       0.51738933 
C      -4.12090463      -0.84090807       0.76682720 
C      -4.93100497       0.17970452       0.26411199 
C      -4.34030395       1.20823212      -0.47318076 
C      -2.96485169       1.17998814      -0.68463823 
H      -2.08344385      -1.56603884       0.88833117 
H      -4.53467694      -1.65902482       1.34538819 
H      -6.00119849       0.17341814       0.44353858 
H      -4.92909564       2.02133619      -0.88243015 
H      -2.46007507       1.95403904      -1.25132110 
N       0.13477370       0.04706063       1.59765060 
C      -0.47017829       0.92503923       2.42612355 
C      -0.37877249       0.82827309       3.81168209 
C       0.36643024      -0.21342898       4.36836728 
C       0.99466873      -1.12109962       3.51358977 
C       0.85418211      -0.95875201       2.13804227 
H      -1.03335899       1.71988741       1.95012923 
H      -0.88415626       1.55804044       4.43401818 
H       0.45611111      -0.31513787       5.44501157 
H       1.58495846      -1.94529142       3.89791560 
H       1.32402030      -1.64336495       1.44175573 
O      -0.34289488       0.47123988      -2.42136022 
H      -0.50616947      -0.41114705      -2.79480622 
