50
Properties=species:S:1:pos:R:3 pbc="F F F"
Cr       0.00493349      -0.00012514      -0.60072863 
C       2.86012857      -3.22683121      -0.63051374 
C       1.70563636      -3.95432968      -0.55115795 
C       0.61363304      -3.00894903      -0.51281615 
C      -0.74159635      -3.34924806      -0.47301008 
C      -1.82086652      -2.46163560      -0.50672990 
C      -3.21150193      -2.84990927      -0.52572793 
C      -3.94721537      -1.69964373      -0.59871238 
C      -3.01066214      -0.60065084      -0.61279273 
N      -1.72393061      -1.08877259      -0.55528305 
C      -3.35799570       0.75341541      -0.64799360 
C      -2.46854262       1.83126631      -0.60080313 
C      -2.84757272       3.22519437      -0.58921130 
C      -1.69172418       3.95140270      -0.50955033 
C      -0.60020567       3.00529048      -0.48409116 
N      -1.09859834       1.72316591      -0.53097948 
C       0.75547101       3.34529787      -0.45056506 
C       1.83493415       2.45844148      -0.49961709 
C       3.22569159       2.84734723      -0.51832450 
C       3.96077911       1.69743314      -0.60387122 
C       3.02315019       0.59902033      -0.62643721 
N       1.73750097       1.08679474      -0.56265568 
C       3.36979992      -0.75498657      -0.67288830 
C       2.48024022      -1.83285183      -0.63010906 
N       1.11050952      -1.72636838      -0.55370552 
H       3.87954548      -3.58669342      -0.68223181 
H       1.58921418      -5.03009911      -0.52819307 
H      -0.97997048      -4.40767415      -0.43993025 
H      -3.56453923      -3.87243578      -0.49295008 
H      -5.02339754      -1.59117994      -0.63419042 
H      -4.41640582       0.98902514      -0.69369924 
H      -3.86670027       3.58622134      -0.63327419 
H      -1.57463719       5.02672429      -0.47898477 
H       0.99337269       4.40351640      -0.40883357 
H       3.57924941       3.86926899      -0.47626863 
H       5.03679942       1.58900550      -0.64255718 
H       4.42794267      -0.99082960      -0.72338881 
N       0.02087878      -0.00506544       1.58117380 
C      -1.09993835       0.27576435       2.27878780 
C      -1.13414804       0.29458053       3.67069250 
C       0.03522977       0.01195509       4.37926384 
C       1.19686385      -0.28035968       3.66212639 
C       1.14852690      -0.27900745       2.27040748 
H      -1.98772993       0.49110368       1.69560869 
H      -2.06244953       0.52778975       4.18026346 
H       0.04108456       0.01970957       5.46439173 
H       2.13024810      -0.50690306       4.16485495 
H       2.03051646      -0.50150624       1.68143277 
O      -0.00961471       0.01583494      -2.52168896 
H      -0.93829614      -0.04310273      -2.80073425 
