49
Properties=species:S:1:pos:R:3 pbc="F F F"
Cr      -0.19288485       0.14939049       0.17897397 
O       1.87478150       3.62843126      -0.03562410 
C       1.47974958       2.46079991       0.11405593 
O       0.22268013       2.10255266       0.12256726 
C       2.44302433       1.32368757       0.33143119 
C       3.82417229       1.42498319       0.45547565 
C       4.54224790       0.25114131       0.71350342 
C       3.87946045      -0.97064429       0.84114701 
C       2.48557001      -1.00084879       0.69276744 
C       1.61500250      -2.19076712       0.76793351 
C       2.09821868      -3.44863403       1.12773731 
C       1.21277217      -4.52386361       1.17891437 
C      -0.12328010      -4.31057348       0.85728561 
C      -0.54631659      -3.03145034       0.47257331 
C      -1.99187078      -2.84930259       0.02593000 
O      -2.87050450      -3.41039870       0.74189144 
O      -2.18463314      -2.19250763      -1.04199651 
N       0.30214423      -1.98092174       0.44169041 
N       1.81963316       0.13797954       0.44013029 
H       4.31394616       2.38674244       0.36144064 
H       5.62082441       0.28812680       0.81954835 
H       4.43758802      -1.87591840       1.04506927 
H       3.14508089      -3.58326495       1.36987828 
H       1.56401352      -5.50997032       1.46259649 
H      -0.84551267      -5.11766054       0.88024920 
O      -2.04198460       0.45126241      -0.09151492 
H      -2.38444619      -0.36568137      -0.50816767 
N      -0.47293923       0.17014456       2.28084740 
C       0.38887335       0.73230078       3.15552978 
C       0.19829136       0.67252423       4.53272109 
C      -0.91907122       0.00265753       5.03379381 
C      -1.81284487      -0.57645955       4.13121782 
C      -1.56014780      -0.46857480       2.76781884 
H       1.24637838       1.24689194       2.74086642 
H       0.91903831       1.14477058       5.19031046 
H      -1.09095652      -0.06408503       6.10299948 
H      -2.69783230      -1.10385719       4.46841840 
H      -2.23523999      -0.88698905       2.03178260 
N       0.14260317       0.09622390      -1.91367418 
C       0.78480614      -0.90495171      -2.55284970 
C       0.96473768      -0.91061230      -3.93270583 
C       0.46523360       0.15333626      -4.68529712 
C      -0.20100353       1.18755777      -4.02518485 
C      -0.34520022       1.12396633      -2.64315539 
H       1.15704551      -1.71761445      -1.94146401 
H       1.48655723      -1.73883851      -4.39822964 
H       0.59113856       0.17557272      -5.76273415 
H      -0.60898227       2.03447241      -4.56492933 
H      -0.85750581       1.90083592      -2.08962005 
