61
Properties=species:S:1:pos:R:3 pbc="F F F"
Cr      -0.03474806       0.14339666       0.11719711 
O       1.91602457      -3.40549177       0.37727596 
C       1.56005275      -2.21723482       0.29771062 
O       0.32086798      -1.82696752       0.17257405 
C       2.56250754      -1.09345228       0.33759337 
C       3.94264875      -1.21947648       0.45688734 
C       4.70561335      -0.04568483       0.47160145 
C       4.08937575       1.20247418       0.36338142 
C       2.69453550       1.25512659       0.24325730 
C       1.85694127       2.46457522       0.10873043 
C       2.39040970       3.74646504      -0.00792392 
C       1.52331011       4.82783207      -0.16938092 
C       0.15336978       4.59539390      -0.20398540 
C      -0.32893211       3.28849443      -0.05074061 
C      -1.83481709       3.07151587      -0.00745684 
O      -2.30102982       2.52630703       1.03897202 
O      -2.48516690       3.50102579      -1.00184167 
N       0.50427971       2.23562758       0.09379921 
N       1.98385226       0.11435111       0.23954185 
H       4.39936869      -2.19869308       0.53614868 
H       5.78438765      -0.10247617       0.56651011 
H       4.68309232       2.10798579       0.37568538 
H       3.46251173       3.89707103       0.01575788 
H       1.91671748       5.83349730      -0.27005166 
H      -0.55361637       5.40627057      -0.33385240 
O      -1.91142916      -0.08161081      -0.00516831 
H      -2.31608067       0.67572124       0.46294837 
N      -0.15427833       0.13034590       2.22186050 
C       0.40736002       1.07552222       3.04510768 
C       0.30636254       1.01623389       4.41297144 
C      -0.39811173      -0.05140451       5.02805555 
C      -0.54815503      -0.18995374       6.43210247 
C      -1.24969251      -1.26264393       6.94567149 
C      -1.82862275      -2.23638303       6.08996520 
C      -1.70069786      -2.12787781       4.72155892 
C      -0.98305487      -1.03357952       4.16711599 
C      -0.82492807      -0.88081387       2.77048833 
H       0.93781482       1.88349164       2.55932167 
H       0.76637829       1.78940849       5.01931975 
H      -0.10623693       0.55386500       7.08796481 
H      -1.36348795      -1.36801861       8.02021303 
H      -2.37448693      -3.06886963       6.52213493 
H      -2.13883049      -2.86552762       4.05592913 
H      -1.25902024      -1.60514276       2.09050267 
N       0.09766000       0.04249645      -1.98941667 
C       0.89883594       0.82700710      -2.78163477 
C       0.95534665       0.68477582      -4.14601181 
C       0.16869814      -0.30543547      -4.79009186 
C       0.16622050      -0.51990593      -6.19263241 
C      -0.63107813      -1.50815349      -6.73498666 
C      -1.45489421      -2.31951831      -5.91099093 
C      -1.47380318      -2.13484367      -4.54494279 
C      -0.66223394      -1.12466274      -3.96104413 
C      -0.64961986      -0.89678802      -2.56604223 
H       1.49197806       1.57896821      -2.27863751 
H       1.60288644       1.33310144      -4.72681293 
H       0.79488489       0.09968836      -6.82473218 
H      -0.63228382      -1.67146751      -7.80830329 
H      -2.07178475      -3.08779800      -6.36585979 
H      -2.09966610      -2.74739206      -3.90284613 
H      -1.27034133      -1.49690294      -1.91030828 
