59
Properties=species:S:1:pos:R:3 pbc="F F F"
Cr      -0.32581962       0.06265215       0.05364336 
O       1.14058385      -3.70244825       0.21525781 
C       0.94159945      -2.47593880       0.20712578 
O      -0.22584514      -1.92080989       0.02086428 
C       2.06447749      -1.49712301       0.42709018 
C       3.38728011      -1.80909514       0.72305538 
C       4.26858180      -0.74809825       0.96275248 
C       3.81873836       0.57282439       0.91118770 
C       2.47471220       0.81376220       0.59722667 
C       1.80908244       2.12630443       0.49314960 
C       2.47970879       3.33463135       0.66387893 
C       1.78234843       4.52911684       0.47215858 
C       0.44717913       4.47916683       0.08981662 
C      -0.18227931       3.23380275      -0.04555495 
C      -1.63822788       3.18734847      -0.48731689 
O      -2.50300982       2.89163088       0.39269336 
O      -1.84754604       3.48254788      -1.69673091 
N       0.47508392       2.07622174       0.17689279 
N       1.65397340      -0.22179985       0.34942598 
H       3.70931197      -2.84221478       0.77546791 
H       5.30692433      -0.95029140       1.20145919 
H       4.49933317       1.39047163       1.11351555 
H       3.52949207       3.34461403       0.92975310 
H       2.28493024       5.48151327       0.60095283 
H      -0.11945305       5.38290615      -0.10304776 
O      -2.20545312       0.09149927      -0.08975232 
H      -2.53179749       0.98931200       0.12206063 
N      -0.48768633       0.04964044       2.16244920 
C      -1.22201987       1.02392826       2.77009415 
C      -1.40629058       1.04112202       4.13611334 
C      -0.82537665       0.01564915       4.90491530 
C      -0.94453154      -0.09892297       6.31500915 
C      -0.33702972      -1.15029281       6.96588110 
C       0.41151759      -2.12445459       6.24707901 
C       0.54871904      -2.04202134       4.88037475 
C      -0.07034006      -0.96754032       4.18368494 
N       0.08270235      -0.91912126       2.83136099 
H      -1.64851351       1.76800944       2.10467293 
H      -1.99233942       1.82695074       4.60042423 
H      -1.51741009       0.64580902       6.85804831 
H      -0.42753671      -1.24391072       8.04327214 
H       0.87652002      -2.94087253       6.78981945 
H       1.11434421      -2.77603460       4.31640173 
N      -0.06634552       0.09170204      -2.06399453 
C       0.79406187       0.92112295      -2.71974132 
C       0.94128972       0.88817610      -4.09012922 
C       0.17820797      -0.03668407      -4.82451510 
C       0.22928578      -0.18685688      -6.23540684 
C      -0.56285110      -1.13410193      -6.84616134 
C      -1.43340189      -1.96492480      -6.08521209 
C      -1.50764581      -1.84398009      -4.71679448 
C      -0.69946138      -0.87438366      -4.06027414 
N      -0.79860570      -0.78544782      -2.70657872 
H       1.35696373       1.60823608      -2.10410119 
H       1.63371539       1.56280352      -4.58172518 
H       0.89541073       0.44836482      -6.81025228 
H      -0.52732209      -1.25523760      -7.92404334 
H      -2.04366209      -2.70119006      -6.59780842 
H      -2.16518603      -2.46782445      -4.12080241 
