57
Properties=species:S:1:pos:R:3 pbc="F F F"
Fe      -0.01322389      -0.07681707       0.08044222 
O       0.46599868      -3.89331073       1.96068552 
C       0.83269749      -2.78248548       1.49698379 
O       0.05008527      -2.04520837       0.77479638 
C       2.22034045      -2.29131825       1.76153825 
C       3.13197790      -3.06071611       2.49727366 
C       4.44625850      -2.62864752       2.74413718 
C       4.91611067      -1.40358517       2.26498178 
C       4.01139926      -0.63421569       1.53430948 
N       4.12192359       0.60673556       0.93029855 
C       2.92524680       0.91861274       0.34984415 
C       2.66055611       2.15017832      -0.36692170 
C       3.72410157       2.98507493      -0.77461848 
C       3.48937718       4.18184362      -1.43866353 
C       2.16653250       4.57104741      -1.70710272 
C       1.10184010       3.76738431      -1.31998458 
C       1.31463112       2.53953859      -0.65060466 
O       0.25769405       1.82001921      -0.29107263 
N       2.04424110      -0.07572412       0.54375828 
C       2.68728789      -1.05325953       1.28067129 
H       2.80485173      -4.02035491       2.88290136 
H       5.11224012      -3.26346518       3.31930168 
H       5.93012425      -1.06722450       2.45172577 
H       4.93958064       1.20448297       0.95447921 
H       4.74912728       2.67988526      -0.58393316 
H       4.32209712       4.80318089      -1.75054145 
H       1.96976699       5.50484541      -2.22587591 
H       0.07686408       4.06106747      -1.52563557 
N      -2.25481882       0.32590238       0.10241280 
C      -2.77607304       1.50583967       0.53488737 
C      -4.13493838       1.73858444       0.56443059 
C      -4.99637186       0.70967182       0.13792375 
C      -6.41345385       0.80322859       0.11731322 
C      -7.16071698      -0.26918642      -0.31831506 
C      -6.53420191      -1.47209021      -0.74963382 
C      -5.16347424      -1.59491932      -0.74240263 
C      -4.36885131      -0.50320089      -0.29709056 
N      -3.01409661      -0.66035422      -0.30509876 
H      -2.04688743       2.24190438       0.84995288 
H      -4.52605833       2.68946135       0.91060420 
H      -6.88601307       1.72291399       0.44734693 
H      -8.24381864      -0.20246077      -0.33527389 
H      -7.15087846      -2.29867271      -1.08720971 
H      -4.66840854      -2.50398816      -1.06765521 
N      -0.32541271       0.40111338       2.31065449 
C      -1.12379619      -0.35395824       3.09127001 
C      -1.31582262      -0.08983587       4.44568839 
C      -0.65716404       1.00048864       5.01888049 
C       0.16866481       1.78632711       4.21261783 
C       0.30550069       1.45392247       2.86616043 
H      -1.61397296      -1.19162728       2.60692696 
H      -1.96768597      -0.72830937       5.03159246 
H      -0.78519856       1.23263513       6.07122849 
H       0.69975493       2.64314932       4.61228434 
H       0.93489314       2.03916221       2.20431663 
O      -0.02276078      -0.62190522      -1.76403151 
H      -0.21312983      -1.57404427      -1.81414126 
