62
Properties=species:S:1:pos:R:3 pbc="F F F"
Fe      -0.11563743      -0.56424040       0.19362329 
O       0.56677583      -2.43741298       0.24039385 
C       1.76111502      -3.03441904       0.31470844 
C       1.78999524      -4.44788154       0.37345769 
C       2.98602902      -5.15235505       0.45654905 
C       4.21422332      -4.47346976       0.48469442 
C       4.22202855      -3.08523417       0.42599329 
C       3.02504235      -2.34524225       0.33875837 
C       3.03222476      -0.89903219       0.27819199 
N       4.11054196      -0.03837393       0.23946665 
C       3.63057347       1.27629880       0.18191264 
C       4.17183009       2.57164595       0.11891239 
C       3.22730854       3.60904279       0.06637338 
C       1.81943476       3.43136327       0.07183525 
C       1.27603934       2.13234034       0.13521042 
O       0.00818089       1.72435510       0.14817228 
C       2.24753766       1.12245378       0.18999237 
N       1.90336365      -0.19531882       0.24934461 
H       0.83879393      -4.97171170       0.35340128 
H       2.96344501      -6.23746466       0.50151612 
H       5.14816878      -5.02145125       0.55258237 
H       5.17107516      -2.55680820       0.45183045 
H       5.08427203      -0.31917184       0.24366121 
H       5.23680044       2.77268572       0.10955849 
H       3.60080584       4.62862215       0.01624195 
H       1.17189419       4.30254589       0.02562624 
O      -2.02126987      -0.62782093       0.13932155 
H      -2.41393741       0.25997505       0.12591455 
N      -0.15394706      -0.35977049       2.44651249 
C       0.83930851      -0.88366467       3.23193586 
C       0.85319033      -0.75186885       4.59986616 
C      -0.19333285      -0.04667021       5.25099809 
C      -0.26266658       0.13525183       6.65732500 
C      -1.31855435       0.83154959       7.21095496 
C      -2.34465593       1.37488304       6.39391550 
C      -2.30371322       1.21601134       5.02475335 
C      -1.22857480       0.50295856       4.42911120 
C      -1.14303481       0.30764493       3.02891493 
H       1.62400531      -1.41571528       2.70758820 
H       1.66101005      -1.18681989       5.17961221 
H       0.52120150      -0.27991334       7.28369772 
H      -1.37003023       0.96820481       8.28690881 
H      -3.16379340       1.91667984       6.85606703 
H      -3.08297906       1.62594152       4.38884497 
H      -1.91373987       0.70824067       2.37713649 
N      -0.01170788      -0.42721248      -2.05449905 
C       1.03920759      -0.94850748      -2.76319239 
C       1.14286154      -0.83813085      -4.12918385 
C       0.13246809      -0.15966568      -4.86083956 
C       0.15559606       0.00038351      -6.27135134 
C      -0.87074979       0.67163760      -6.90559338 
C      -1.95777593       1.21039737      -6.16817832 
C      -2.00717794       1.07217662      -4.79708150 
C      -0.96407009       0.38536506      -4.11933768 
C      -0.96958751       0.21416624      -2.71350999 
H       1.79428044      -1.46110379      -2.17935823 
H       1.99411489      -1.26954935      -4.64600652 
H       0.98606251      -0.41133993      -6.83700332 
H      -0.85137642       0.79175383      -7.98456667 
H      -2.75167519       1.73235913      -6.69295548 
H      -2.83355906       1.47901093      -4.22154616 
H      -1.78777999       0.61257770      -2.12103411 
