66
Properties=species:S:1:pos:R:3 pbc="F F F"
Fe       0.00000000       0.00000000       0.00000000 
C      -0.08997800       4.29335900       0.14257500 
C       1.19889700       4.58096300       0.59642100 
C       2.12119800       3.54986500       0.77864400 
C       1.73357600       2.23767600       0.48389000 
C       2.58086900       1.06863100       0.65028300 
C       3.73068100       0.95615700       1.44478400 
C       4.27934800      -0.32269300       1.63610400 
C       3.62001100      -1.44883800       1.11613000 
C       2.46228500      -1.24430700       0.35093900 
C       1.53228100      -2.28797000      -0.12104300 
C       1.97372400      -3.56190000      -0.50252800 
C       1.03874300      -4.49620400      -0.92538000 
C      -0.30476000      -4.14524600      -0.94057000 
C      -0.68725900      -2.87116900      -0.50811200 
N       0.20037100      -1.95755200      -0.06819100 
N       2.10000000       0.00000000       0.00000000 
N       0.44870900       1.95755200       0.06819100 
C      -0.45068000       2.96851100      -0.11698600 
H      -0.80722400       5.09086500      -0.00171600 
H       1.48288200       5.60419600       0.80551000 
H       3.11950100       3.77700800       1.12813900 
H       4.16124900       1.81165200       1.94732100 
H       5.15352800      -0.44876500       2.26140600 
H       3.96612600      -2.44442300       1.36099500 
H       3.02624300      -3.81506600      -0.49685100 
H       1.35276500      -5.48108300      -1.24601400 
H      -1.05036100      -4.85555400      -1.27377600 
H      -1.73982800      -2.62503900      -0.50680500 
H      -1.45129300       2.74358900      -0.45817400 
N      -2.10000000       0.00000000       0.00000000 
C      -2.82121600      -0.31162100       1.12770900 
C      -4.21481800      -0.30957400       1.13471900 
C      -4.90891100      -0.02875400      -0.03771000 
C      -6.31184600      -0.03731200      -0.06306700 
C      -6.99066100       0.21445200      -1.25765000 
C      -6.27459900       0.47635100      -2.42936700 
C      -4.87598600       0.50042600      -2.40922100 
C      -4.18459000       0.25300700      -1.21149100 
C      -2.78087900       0.27563700      -1.16184200 
H      -2.34122000      -0.57841800       2.04927900 
H      -4.74403900      -0.54416000       2.05144900 
H      -6.88069300      -0.24429200       0.83670100 
H      -8.07285500       0.20142100      -1.27604600 
H      -6.80532100       0.66011600      -3.35482800 
H      -4.33711600       0.70469300      -3.32645100 
H      -2.24935000       0.51236800      -2.06614700 
N       0.00000000       0.00000000       2.10000000 
C      -0.57835500       1.04558000       2.77686900 
C      -0.59255200       1.09055400       4.17566500 
C       0.02389400       0.07119200       4.90774800 
C       0.04134800       0.08135100       6.31064400 
C       0.68218100      -0.94711800       7.01241500 
C       1.30821900      -1.98743900       6.32023800 
C       1.28270000      -2.01257800       4.92613100 
C       0.63888000      -0.98808200       4.21545500 
C       0.59664800      -1.00601100       2.82081600 
H      -1.06972100       1.83837800       2.23314100 
H      -1.07874500       1.91662000       4.68002500 
H      -0.43678000       0.88134800       6.86232700 
H       0.69820000      -0.93556900       8.09443800 
H       1.81094300      -2.77586900       6.86473700 
H       1.77374400      -2.82699300       4.40135400 
H       1.04590000      -1.84421200       2.33008200 
O       0.00000000       0.00000000      -2.08000000 
H       0.00000000       0.00000000      -3.50051500 
