58
Properties=species:S:1:pos:R:3 pbc="F F F"
Fe       0.07455359      -0.01270205      -0.12480538 
O       2.09426949      -3.59611620       0.32220120 
C       1.75489486      -2.40395279       0.21374098 
O       0.53067329      -1.99874229       0.04643800 
C       2.77408522      -1.29738650       0.26932424 
C       4.14681036      -1.47540935       0.42364105 
C       4.95291527      -0.33300184       0.45028787 
C       4.37860367       0.93302297       0.32662391 
C       2.98881472       1.03125548       0.17542008 
C       2.21655295       2.28199520       0.03110893 
C       2.78278320       3.55692160      -0.03669317 
C       1.94170587       4.66189513      -0.17705835 
C       0.56163998       4.46886808      -0.24644898 
C       0.06639903       3.16681224      -0.17357487 
N       0.87409259       2.10407142      -0.03591601 
N       2.23159899      -0.07877051       0.15091269 
H       4.56315327      -2.47123619       0.51701960 
H       6.02688790      -0.42698958       0.56832913 
H       4.99874653       1.82117045       0.34897354 
H       3.85733740       3.68499617       0.01418997 
H       2.36288298       5.65983471      -0.23354288 
H      -0.12323899       5.30150646      -0.35637947 
H      -0.99740843       2.95991479      -0.22702089 
N      -2.23654237       0.01406390       0.03200636 
C      -2.92032509       0.88952738       0.81750656 
C      -4.29647979       0.86560862       0.90856033 
C      -4.99551337      -0.10861835       0.17090010 
C      -6.40755274      -0.26169711       0.17640071 
C      -6.98771960      -1.25520156      -0.58155095 
C      -6.19388310      -2.13179476      -1.37354050 
C      -4.82345352      -2.01021524      -1.40193636 
C      -4.19919477      -0.99447070      -0.62745479 
N      -2.83947596      -0.90558968      -0.67705994 
H      -2.30899482       1.59757293       1.36418349 
H      -4.82150024       1.57572677       1.53848964 
H      -7.00808729       0.40912096       0.78232745 
H      -8.06611685      -1.37704819      -0.57936984 
H      -6.68201079      -2.90346863      -1.95970132 
H      -4.20222099      -2.66912092      -1.99934397 
N      -0.08024175       0.05860244       2.10558904 
C      -0.71886697      -1.01180928       2.68524093 
C      -0.83085221      -1.16321670       4.04542537 
C      -0.27402631      -0.18742322       4.91420941 
C      -0.33613825      -0.26637450       6.32948055 
C       0.23393579       0.72793716       7.09968621 
C       0.88436418       1.83709994       6.49819996 
C       0.95929117       1.94181745       5.12531048 
C       0.38289357       0.93115135       4.30981648 
C       0.44076634       0.99068748       2.89646705 
H      -1.12952630      -1.74327229       1.99981341 
H      -1.34277484      -2.02913042       4.45228339 
H      -0.83273989      -1.11419874       6.79131104 
H       0.18698703       0.66518513       8.18254131 
H       1.32384577       2.60380505       7.12817227 
H       1.45400736       2.78521600       4.65245220 
H       0.93337263       1.83039371       2.41877123 
O      -0.00181369       0.19213723      -1.98914117 
H      -0.16451206       1.09762240      -2.30296136 
