57
Properties=species:S:1:pos:R:3 pbc="F F F"
Fe      -0.07827069      -0.19619159      -0.20136201 
O       2.09104596      -3.61209592       0.71607631 
C       1.68262472      -2.45804236       0.48849264 
O       0.46902985      -2.16430322       0.13020263 
C       2.59974418      -1.27171929       0.62430741 
C       3.93017498      -1.33711820       1.02901806 
C       4.64073938      -0.13758934       1.13134877 
C       4.01476556       1.07319784       0.83418112 
C       2.67276255       1.05997730       0.42898429 
C       1.86470900       2.24468603       0.07584973 
C       2.36640142       3.54809242       0.03811888 
C       1.51555281       4.58986897      -0.33333328 
C       0.19216089       4.30375056      -0.66717668 
C      -0.23870889       2.97847197      -0.60818992 
N       0.57286677       1.97650297      -0.23543385 
N       2.00904944      -0.10416536       0.33089724 
H       4.38533481      -2.29344862       1.25709268 
H       5.67866757      -0.14404269       1.44574106 
H       4.56022872       2.00524244       0.91851369 
H       3.40146028       3.74708275       0.28807717 
H       1.88715595       5.60831040      -0.36771354 
H      -0.49886023       5.08157526      -0.97002177 
H      -1.25664994       2.70738711      -0.86641206 
N      -2.29172723      -0.01808177      -0.01279072 
C      -2.95359549       0.94099978       0.68905629 
C      -4.32931443       0.95112367       0.78385082 
C      -5.04961329      -0.07542186       0.14516505 
C      -6.46433164      -0.19511755       0.16564439 
C      -7.06749643      -1.24535512      -0.49079744 
C      -6.29455244      -2.21414167      -1.19126664 
C      -4.92188689      -2.12722165      -1.23212184 
C      -4.27385949      -1.05295193      -0.56303309 
N      -2.91417241      -0.99405985      -0.62605107 
H      -2.32863147       1.68867012       1.16111016 
H      -4.83746215       1.72982560       1.34240901 
H      -7.04832561       0.54617779       0.70145012 
H      -8.14832500      -1.34195628      -0.47815455 
H      -6.80119096      -3.02872267      -1.69821696 
H      -4.31697788      -2.85557182      -1.76166250 
N      -0.26703397      -0.00758360       2.08257199 
C      -0.90516387      -1.01740158       2.73831211 
C      -0.97605058      -1.07010155       4.11451077 
C      -0.36739494      -0.03705758       4.85224077 
C      -0.35457290       0.04104851       6.27016898 
C       0.27377639       1.10027943       6.88789743 
C       0.91044084       2.12048753       6.12661252 
C       0.91567353       2.07473631       4.75120969 
C       0.27626561       0.99097309       4.08817291 
N       0.31076488       0.97491263       2.72539519 
H      -1.34607128      -1.77579533       2.10311905 
H      -1.48684640      -1.88848843       4.61067642 
H      -0.84172991      -0.73939046       6.84592914 
H       0.28737095       1.16382199       7.97116622 
H       1.39675271       2.94115296       6.64374841 
H       1.39655724       2.84279973       4.15447428 
O      -0.07570310      -0.15936228      -2.07176887 
H      -0.19390548       0.71526640      -2.47906465 
