55
Properties=species:S:1:pos:R:3 pbc="F F F"
Fe      -0.10564164      -0.17574274       0.16009295 
O       0.28987198      -2.15592947       0.11583863 
C       1.35805425      -2.93837120       0.25559203 
C       1.20980661      -4.32245237      -0.00605130 
C       2.27413678      -5.20586075       0.12229153 
C       3.54069307      -4.74763187       0.52284686 
C       3.71961125      -3.39678140       0.79033253 
C       2.65680306      -2.47670371       0.66763736 
C       2.82992116      -1.07166096       0.95293308 
N       3.92841708      -0.43171265       1.48573328 
C       3.63182883       0.92963927       1.62659942 
C       4.28136570       2.07708062       2.10933727 
C       3.51756868       3.25457481       2.06603813 
C       2.18527752       3.34226987       1.58907191 
C       1.53269063       2.19054293       1.10201971 
O       0.29938453       2.03996049       0.62578227 
C       2.32932646       1.03631805       1.14662453 
N       1.86269117      -0.17938196       0.73459408 
H       0.23020958      -4.67456409      -0.31616052 
H       2.12086935      -6.25981931      -0.09177751 
H       4.37221571      -5.43780828       0.61931700 
H       4.69991145      -3.03916680       1.09340026 
H       4.79520995      -0.88460592       1.75107607 
H       5.29418718       2.06961123       2.49503458 
H       3.97852362       4.16882669       2.43101265 
H       1.67463364       4.30108090       1.60655210 
N      -2.49149785      -0.19966245       0.04021841 
C      -3.27676159      -1.06262038       0.73841467 
C      -4.65330968      -1.04514632       0.64421845 
C      -5.25090694      -0.08481306      -0.19400617 
C      -6.65178525       0.06160810      -0.37871444 
C      -7.12905209       1.03829701      -1.22489762 
C      -6.23881885       1.90378216      -1.92076986 
C      -4.87625299       1.78723641      -1.76602226 
C      -4.35769875       0.78894968      -0.89658727 
N      -3.00311001       0.69942875      -0.76417559 
H      -2.74290990      -1.76391369       1.36863126 
H      -5.25623545      -1.75103765       1.20573926 
H      -7.32566715      -0.60125564       0.15469087 
H      -8.19857737       1.15497500      -1.36769921 
H      -6.64640927       2.66284334      -2.58044940 
H      -4.18300281       2.43814267      -2.28851500 
N      -0.65216715      -0.21365164       2.34383247 
C      -1.44732601       0.72611156       2.89477092 
C      -1.73668176       0.75738042       4.25642241 
C      -1.18472379      -0.22200159       5.08550681 
C      -0.36253600      -1.19723614       4.51808164 
C      -0.12185669      -1.15815635       3.14607279 
H      -1.85193032       1.47013121       2.21776778 
H      -2.38053931       1.53522763       4.65140519 
H      -1.39048269      -0.22420131       6.15105799 
H       0.08905528      -1.97745612       5.12059211 
H       0.51225784      -1.89464221       2.66531247 
O      -0.26982029       0.20583736      -1.71092118 
H      -1.09478976       0.71502687      -1.82675640 
