59
Properties=species:S:1:pos:R:3 pbc="F F F"
Fe      -0.22423229      -0.09483525       0.14810343 
O       1.88410533       3.46647911       0.37217106 
C       1.50504304       2.28165419       0.31398706 
O       0.26251690       1.90745146       0.24428810 
C       2.50161209       1.15077731       0.32564281 
C       3.88378660       1.29762464       0.41500624 
C       4.66318010       0.13625474       0.42450028 
C       4.05701674      -1.11927334       0.34674939 
C       2.66020728      -1.18518127       0.25650271 
C       1.84192143      -2.41610027       0.16371023 
C       2.36781455      -3.70839180       0.11973734 
C       1.49097270      -4.79093153       0.02948177 
C       0.11645837      -4.55783619      -0.01521010 
C      -0.33984847      -3.24080580       0.03063266 
N       0.50070637      -2.19750042       0.11947892 
N       1.92883885      -0.05767179       0.24648855 
H       4.32808374       2.28375985       0.47694910 
H       5.74314641       0.20773515       0.49427196 
H       4.65908090      -2.01952104       0.35893962 
H       3.43884877      -3.86829035       0.15124717 
H       1.88155828      -5.80213046      -0.00660402 
H      -0.59442479      -5.37254080      -0.08606030 
H      -1.39772323      -3.00342826      -0.00399769 
O      -2.08950661      -0.20872578       0.00122308 
H      -2.40399744      -0.91648456      -0.58603317 
N      -0.18630813      -0.15727098       2.36342354 
C       0.60062414      -0.94753815       3.16037955 
C       0.55074226      -0.89373492       4.53198105 
C      -0.34490755       0.00149220       5.17412091 
C      -0.46488061       0.11619933       6.58335491 
C      -1.36761916       1.00886875       7.12636708 
C      -2.18381743       1.82141282       6.29605415 
C      -2.08826308       1.73447947       4.92346518 
C      -1.16761290       0.82329805       4.33914032 
C      -1.03363486       0.69314342       2.93709616 
H       1.26947450      -1.62984968       2.65166971 
H       1.19382943      -1.53885239       5.12142426 
H       0.15767318      -0.50503335       7.21993870 
H      -1.45917646       1.09432042       8.20478569 
H      -2.88550057       2.51300966       6.75109985 
H      -2.70610305       2.35015169       4.27656739 
H      -1.64093478       1.30450770       2.27599963 
N       0.00759537      -0.06437074      -2.07391375 
C       1.00742729      -0.65470184      -2.80334096 
C       1.05545242      -0.60147818      -4.17502304 
C       0.04162594       0.08513235      -4.89348545 
C       0.00473571       0.17718284      -6.30908460 
C      -1.02466078       0.85924842      -6.92703473 
C      -2.05332153       1.47694641      -6.16821557 
C      -2.04275343       1.40706720      -4.79128908 
C      -0.99586958       0.70942791      -4.13061375 
C      -0.94949927       0.59667953      -2.72108146 
H       1.77081103      -1.17601606      -2.24043318 
H       1.86714674      -1.08813239      -4.70574741 
H       0.79003602      -0.29521889      -6.89127840 
H      -1.05329897       0.92639242      -8.01026371 
H      -2.85082332       2.00456962      -6.68152842 
H      -2.82437720       1.87339516      -4.19887724 
H      -1.72381700       1.05391563      -2.11346050 
