60
Properties=species:S:1:pos:R:3 pbc="F F F"
Fe       0.00000000       0.00000000       0.00000000 
C      -0.01433100       4.29199600       0.05912800 
C       1.33597400       4.63379600      -0.03421900 
C       2.30701500       3.63258000      -0.07914700 
C       1.89879100       2.29291100      -0.03624800 
C       2.78538800       1.15338600      -0.07502200 
C       4.18202900       1.15330000      -0.18749000 
C       4.84322800      -0.08010900      -0.23561900 
C       4.10843500      -1.27234300      -0.18674900 
C       2.71004600      -1.19675500      -0.07793800 
C       1.76310100      -2.32980000      -0.04448100 
C       2.16402600      -3.67550000      -0.03891600 
C       1.19046200      -4.66550900      -0.01550400 
C      -0.14817600      -4.29668800      -0.00170900 
C      -0.48507000      -2.94010800      -0.01388300 
N       0.44559000      -1.96542300      -0.03792000 
N       2.10000000       0.00000000       0.00000000 
N       0.57114100       1.96542300       0.03792000 
C      -0.38134500       2.94454500       0.10066600 
H      -0.77129600       5.06458100       0.09617100 
H       1.62950900       5.67496100      -0.06924100 
H       3.35116500       3.90509400      -0.14646000 
H       4.74889700       2.07216700      -0.24349900 
H       5.92132400      -0.11245600      -0.32504200 
H       4.62625400      -2.21893800      -0.24406200 
H       3.20622100      -3.96074400      -0.04944700 
H       1.47102100      -5.71084200      -0.00805000 
H      -0.92285300      -5.05229000       0.01683600 
H      -1.53119500      -2.66615400      -0.00497500 
H      -1.42647400       2.67456700       0.16708900 
O      -2.08000000       0.00000000       0.00000000 
H      -3.50051500       0.00000000       0.00000000 
N       0.00000000       0.00000000       2.10000000 
C       1.17682200      -0.01905900       2.81358400 
C       1.19566400      -0.01925800       4.20847200 
C      -0.00298000       0.00018600       4.91471700 
C      -0.01547100       0.00051400       6.31774500 
C      -1.23215300       0.02061700       7.00562500 
C      -2.43771800       0.03969700       6.29822600 
C      -2.43230600       0.03916000       4.89963400 
C      -1.21418300       0.01947800       4.20002200 
C      -1.18350200       0.01845800       2.79739100 
H       2.13436200      -0.03521800       2.33400500 
H       2.14621400      -0.03470300       4.72899300 
H       0.91092000      -0.01379200       6.87974700 
H      -1.24043800       0.02090800       8.08777100 
H      -3.37722500       0.05523300       6.83492300 
H      -3.37594300       0.05401300       4.36743100 
H      -2.12166500       0.03220400       2.28660400 
N       0.00000000       0.00000000      -2.10000000 
C      -0.04022200      -1.17065500      -2.82429400 
C      -0.03788600      -1.17546900      -4.21994100 
C       0.00219700       0.02666800      -4.90881900 
C       0.03548700       1.21694000      -4.19494700 
C       0.03155100       1.18566500      -2.79742700 
H      -0.07686200      -2.13111200      -2.35591800 
H      -0.06822300      -2.11261500      -4.76142100 
H       0.00381400       0.03579100      -5.99127200 
H       0.06273700       2.16294400      -4.72021600 
H       0.05338000       2.13395300      -2.29929800 
