57
Properties=species:S:1:pos:R:3 pbc="F F F"
Fe       0.00000000       0.00000000       0.00000000 
O       0.36138300       3.78066200       0.78665900 
C       0.74253900       2.63908500       0.58154100 
O      -0.04954800       1.82377500       0.00000000 
C       2.07938200       2.18441500       1.10734100 
C       2.84349100       3.02870800       1.94906400 
C       4.07598900       2.59570800       2.48482700 
C       4.56504800       1.31109200       2.19995400 
C       3.80129600       0.50155900       1.36768600 
N       4.03761700      -0.80895500       0.97948600 
C       2.87865300      -1.22447600       0.20214100 
C       2.12404900      -2.41881600       0.84563200 
C       2.85393100      -3.32730400       1.65099500 
C       2.22778400      -4.39011700       2.30342300 
C       0.85874500      -4.58753600       2.16572400 
C       0.11032200      -3.72300900       1.37253800 
C       0.72003000      -2.64766400       0.71612500 
O      -0.07719400      -1.82377500       0.00000000 
N       2.10000000       0.00000000       0.00000000 
C       2.62245200       0.90495500       0.83117200 
H       2.48611200       4.01806900       2.20478600 
H       4.64158200       3.25302400       3.13228300 
H       5.49872300       0.96064400       2.62001200 
H       4.86773100      -1.36520400       1.22742600 
H       3.91667000      -3.22438400       1.80271900 
H       2.80884100      -5.05931700       2.92526500 
H       0.37586500      -5.40882600       2.67921400 
H      -0.95688500      -3.87948200       1.27795700 
O      -2.08000000       0.00000000       0.00000000 
H      -3.50051500       0.00000000       0.00000000 
N       0.00000000       0.00000000       2.10000000 
C       1.04461900      -0.38282800       2.91047100 
C       0.97419900      -0.35187400       4.28425100 
C      -0.19485800       0.04406700       4.88257600 
C      -0.29173200       0.06859400       6.27673800 
C      -1.48769400       0.44829000       6.87548300 
C      -2.58752900       0.79650800       6.08129400 
C      -2.48716200       0.78098900       4.67818300 
C      -1.28252800       0.40655800       4.06631700 
N      -1.14486800       0.38029900       2.69667800 
H       1.97007500      -0.72321200       2.55005500 
H       1.83766800      -0.65150000       4.87041800 
H       0.55412200      -0.20558800       6.90273300 
H      -1.56592900       0.46130500       7.95823900 
H      -3.51561800       1.07910400       6.55908600 
H      -3.34449400       1.05337200       4.07948000 
N       0.00000000       0.00000000      -2.10000000 
C      -0.60716300      -1.01811500      -2.78426800 
C      -0.61164900      -1.03505200      -4.18082300 
C       0.00344800       0.00197800      -4.87941100 
C       0.61698300       1.03799400      -4.17757900 
C       0.60910800       1.01899500      -2.78080800 
H      -1.09118700      -1.82316800      -2.25031100 
H      -1.09009300      -1.84540200      -4.71557100 
H       0.00447500       0.00263500      -5.96173100 
H       1.09639300       1.84904700      -4.71026100 
H       1.09107500       1.82260700      -2.24287800 
