57
Properties=species:S:1:pos:R:3 pbc="F F F"
Fe      -0.18681936       0.09297726      -0.26809223 
O       2.30805480      -3.20056906      -0.46585533 
C       1.79461352      -2.06786461      -0.40801174 
O       0.51906757      -1.84009949      -0.29520737 
C       2.65214789      -0.82732327      -0.46146256 
C       4.03863357      -0.80618156      -0.59082614 
C       4.67163375       0.44130233      -0.61485679 
C       3.92273047       1.61451570      -0.50031011 
C       2.53233894       1.51277399      -0.36524362 
C       1.57951179       2.63419408      -0.20952786 
C       1.94729942       3.97758916      -0.12081018 
C       0.94862398       4.94236743       0.02717143 
C      -0.38724428       4.54483460       0.08068411 
C      -0.68297490       3.18566394      -0.01317738 
N       0.27600219       2.25533044      -0.15205299 
N       1.94153758       0.30466007      -0.35992862 
H       4.59738698      -1.73091224      -0.66996254 
H       5.74943106       0.50164535      -0.72006221 
H       4.41311296       2.58007256      -0.51735782 
H       2.98984057       4.26874514      -0.16210445 
H       1.21543635       5.99116439       0.09989460 
H      -1.18972803       5.26409882       0.19405534 
H      -1.70273071       2.81899592       0.02190475 
O      -2.00759769       0.09860111       0.08665310 
H      -2.14203053      -0.12355896       1.03596651 
N       0.04671453      -0.06712367       2.04946747 
C       1.19995008       0.04491184       2.75989516 
C       1.24867992      -0.18132395       4.12091546 
C       0.06344574      -0.54740213       4.78318500 
C      -0.03242711      -0.81918219       6.17387761 
C      -1.24909359      -1.17202228       6.71442555 
C      -2.41410701      -1.26711528       5.90134031 
C      -2.35742661      -1.00738756       4.55136075 
C      -1.11290962      -0.64271496       3.96875378 
N      -1.08152336      -0.39510178       2.63056083 
H       2.07671389       0.32739246       2.19335280 
H       2.18418888      -0.07948070       4.66048374 
H       0.85877153      -0.74533025       6.78860151 
H      -1.32851499      -1.38290950       7.77596773 
H      -3.35627240      -1.54947869       6.35934503 
H      -3.23450931      -1.07574013       3.91662018 
N      -0.29856752       0.13812787      -2.48000931 
C       0.28136979       1.03497261      -3.32284219 
C       0.17302863       0.91872665      -4.69300263 
C      -0.55741951      -0.16327719      -5.21781284 
C      -0.74400622      -0.41378896      -6.60313301 
C      -1.47581364      -1.51041364      -7.00288070 
C      -2.05160025      -2.39765989      -6.04974185 
C      -1.89304147      -2.18283413      -4.70037413 
C      -1.14004368      -1.05920097      -4.26053101 
N      -0.99528786      -0.88161919      -2.91926248 
H       0.83021712       1.83996765      -2.85156530 
H       0.64401771       1.64666399      -5.34467144 
H      -0.30356041       0.26457204      -7.32657702 
H      -1.61966479      -1.70791812      -8.06023169 
H      -2.62106921      -3.25249084      -6.39930149 
H      -2.32295813      -2.84770818      -3.95878671 
