52
Properties=species:S:1:pos:R:3 pbc="F F F"
Fe      -0.06686846       0.06916123       0.26706280 
O       1.54916244      -3.53484960       0.81729073 
C       1.26240702      -2.33588356       0.66183576 
O       0.04456600      -1.88218939       0.53485651 
C       2.32817993      -1.27387278       0.60805086 
C       3.70346334      -1.44529563       0.72358606 
C       4.51673658      -0.30706251       0.63916215 
C       3.95618596       0.95637366       0.44013593 
C       2.56417851       1.05976690       0.33077519 
C       1.74238828       2.25759929       0.11169629 
C       2.24335772       3.54585701      -0.06661427 
C       1.35088024       4.59543719      -0.28522294 
C      -0.01655884       4.32599808      -0.32712543 
C      -0.45534393       3.01623495      -0.13935491 
N       0.39632740       2.00198119       0.08726034 
N       1.81069468      -0.04991039       0.42347752 
H       4.12014923      -2.43387300       0.87497402 
H       5.59288780      -0.40552362       0.72808539 
H       4.58336525       1.83725148       0.37395245 
H       3.31261685       3.71845166      -0.04079412 
H       1.72100264       5.60466503      -0.42729786 
H      -0.74433258       5.10854108      -0.50511517 
H      -1.50862511       2.77080734      -0.17874023 
N      -2.07521217       0.01658676       0.14896227 
C      -2.88257159       0.83650692       0.88522489 
C      -4.25627725       0.76362294       0.81239976 
C      -4.83332722      -0.19425856      -0.04165726 
C      -6.22893793      -0.38462989      -0.21574637 
C      -6.67901522      -1.35906834      -1.08005419 
C      -5.76623802      -2.17899863      -1.80114042 
C      -4.40705307      -2.02015554      -1.65455409 
C      -3.91635845      -1.02072068      -0.76995827 
N      -2.56611715      -0.89139564      -0.65430656 
H      -2.37621002       1.54166839       1.53196927 
H      -4.87082264       1.43151840       1.40609636 
H      -6.92065897       0.24305574       0.33672977 
H      -7.74499107      -1.50899419      -1.21773449 
H      -6.15359301      -2.93692945      -2.47405098 
H      -3.69601323      -2.63512795      -2.19595112 
N      -0.29066884       0.22724498       2.30644315 
C      -1.00456089      -0.73338915       2.93872809 
C      -1.19980753      -0.73250708       4.31541782 
C      -0.64473741       0.29546566       5.07986730 
C       0.08750163       1.28908123       4.42978024 
C       0.24244080       1.22259059       3.04854412 
H      -1.41478982      -1.51570015       2.31274389 
H      -1.77919243      -1.52811493       4.76950302 
H      -0.78047234       0.32129662       6.15592382 
H       0.53853267       2.11065988       4.97415911 
H       0.80545019       1.98451920       2.52585809 
O       0.00495523      -0.09272768      -1.55363681 
H       0.82284881       0.30702495      -1.89700543 
