58
Properties=species:S:1:pos:R:3 pbc="F F F"
Fe      -0.15130209       0.23764539      -0.20067053 
O       1.97769384      -3.32328882      -0.37581054 
C       1.59100997      -2.14081682      -0.31632488 
O       0.34779434      -1.77371156      -0.23628790 
C       2.58153888      -1.00388691      -0.33206613 
C       3.96481418      -1.14179496      -0.42027978 
C       4.73727965       0.02428055      -0.41703800 
C       4.12318730       1.27477200      -0.32207936 
C       2.72669174       1.33203066      -0.23266240 
C       1.90671662       2.55760952      -0.11532115 
C       2.42595545       3.85012497      -0.02429716 
C       1.54224621       4.92677442       0.07491841 
C       0.16791917       4.68877503       0.07863911 
C      -0.28102621       3.37202274      -0.01193115 
N       0.56722423       2.33439850      -0.10316360 
N       2.00004853       0.20025592      -0.24515776 
H       4.41506624      -2.12474210      -0.48881499 
H       5.81773631      -0.03901792      -0.48745730 
H       4.72078817       2.17802285      -0.32004178 
H       3.49625938       4.01713171      -0.02769505 
H       1.92747719       5.93807027       0.14790054 
H      -0.54823692       5.49876931       0.15148266 
H      -1.33770959       3.12878232      -0.01150828 
O      -1.97807729       0.31460734       0.13553312 
H      -2.13117093       0.07862877       1.07850176 
N       0.05537533       0.05090407       2.11558963 
C       1.20177634       0.11807663       2.84290306 
C       1.22519773      -0.12792860       4.20138291 
C       0.02016943      -0.46285700       4.84376005 
C      -0.10371204      -0.74884951       6.22945312 
C      -1.33938814      -1.06288033       6.75022847 
C      -2.49677942      -1.10428486       5.92192148 
C      -2.41281680      -0.83195109       4.57603101 
C      -1.14816260      -0.50641612       4.01355980 
N      -1.09062090      -0.24671088       2.67911419 
H       2.09484266       0.37957292       2.29132605 
H       2.15660704      -0.06483332       4.75378603 
H       0.78143971      -0.71622566       6.85634041 
H      -1.44025144      -1.28393442       7.80787948 
H      -3.45480125      -1.35568062       6.36484434 
H      -3.28339793      -0.86010822       3.92939332 
N      -0.22699518       0.24623914      -2.38365276 
C       0.46723367       1.09502498      -3.20797496 
C       0.40355484       1.00222761      -4.57622595 
C      -0.40262718       0.00271515      -5.18246761 
C      -0.51983882      -0.16323105      -6.58655763 
C      -1.32396637      -1.16338592      -7.09622604 
C      -2.04280506      -2.03490089      -6.23647334 
C      -1.95082825      -1.89772650      -4.86780727 
C      -1.12901791      -0.87742361      -4.31725544 
C      -0.99433450      -0.69925979      -2.92105036 
H       1.07271112       1.84866221      -2.72056430 
H       0.97031745       1.69338614      -5.19116001 
H       0.02912362       0.50196748      -7.24591435 
H      -1.41165762      -1.28968346      -8.17092609 
H      -2.66685669      -2.81216727      -6.66560974 
H      -2.49505973      -2.55742004      -4.19869418 
H      -1.52768748      -1.34888234      -2.23357218 
