66
Properties=species:S:1:pos:R:3 pbc="F F F"
Fe      -0.15493984      -0.50775077       0.11403734 
C      -0.67052651       3.89497122      -0.08534034 
C       0.63806284       4.37927653      -0.09901914 
C       1.70434045       3.47939450      -0.07208145 
C       1.43318294       2.10954323      -0.03157336 
C       2.47110435       1.05828555       0.01256938 
C       3.84961453       1.29574425      -0.01710437 
C       4.71537060       0.20362867       0.03842033 
C       4.20617004      -1.09243117       0.12402839 
C       2.81822998      -1.26051477       0.14851829 
C       2.12520043      -2.56421975       0.23382717 
C       2.77869108      -3.79635178       0.29571995 
C       2.01561514      -4.96289475       0.36495725 
C       0.62326882      -4.87335185       0.37168099 
C       0.03563525      -3.61155022       0.30949914 
N       0.76984833      -2.48735155       0.24372842 
N       1.98951754      -0.19861910       0.08969338 
N       0.15733333       1.65134392      -0.01979313 
C      -0.86970881       2.51635227      -0.04341936 
H      -1.52335426       4.56309159      -0.10290167 
H       0.83120182       5.44621508      -0.12821479 
H       2.72561570       3.84014745      -0.07871741 
H       4.24135718       2.30286666      -0.08201811 
H       5.78777148       0.36255058       0.01556554 
H       4.87245312      -1.94461041       0.16958763 
H       3.86074434      -3.84696836       0.28798665 
H       2.50632146      -5.92903707       0.41140821 
H      -0.00229317      -5.75663825       0.42227627 
H      -1.04047281      -3.47960901       0.31099853 
H      -1.86370274       2.08323835      -0.02677669 
O      -1.95870354      -0.97295764       0.11635465 
H      -2.24361929      -1.57435139      -0.59248216 
N      -0.12751525      -0.24727001       2.32267340 
C       0.89164669      -0.60723150       3.16661502 
C       0.79153374      -0.49323506       4.53167215 
C      -0.39892712       0.01405477       5.11601196 
C      -0.59083063       0.14896964       6.51543780 
C      -1.78358779       0.64718065       7.00097115 
C      -2.82875195       1.03273493       6.12080902 
C      -2.67157645       0.91484393       4.75626433 
C      -1.45497607       0.40186394       4.23044986 
C      -1.25068036       0.24434356       2.83985537 
H       1.78961886      -0.99401919       2.70227333 
H       1.62226863      -0.79660434       5.16021781 
H       0.20675287      -0.14619588       7.19025115 
H      -1.93017867       0.74674953       8.07204771 
H      -3.75548326       1.42027285       6.53149951 
H      -3.46386416       1.20364808       4.07204081 
H      -2.03360397       0.52164014       2.14079499 
N      -0.06088311      -0.48867575      -2.12577625 
C       0.97830021      -0.92943202      -2.90543304 
C       1.03947995      -0.69448545      -4.25772899 
C       0.00560926       0.03740644      -4.89928393 
C       0.00320127       0.34803070      -6.28378350 
C      -1.04042138       1.07373285      -6.82342625 
C      -2.12159951       1.51458574      -6.01558546 
C      -2.14949637       1.22491266      -4.66804780 
C      -1.08500105       0.48413691      -4.08670854 
C      -1.05384506       0.18313483      -2.70538603 
H       1.76005076      -1.48306960      -2.40110114 
H       1.88354688      -1.06414572      -4.83055984 
H       0.82852002       0.01221218      -6.90398653 
H      -1.03896655       1.31462629      -7.88203490 
H      -2.92747603       2.08367192      -6.46777330 
H      -2.96936122       1.55714638      -4.03813633 
H      -1.86207995       0.51459561      -2.06004206 
