62
Properties=species:S:1:pos:R:3 pbc="F F F"
Fe       0.00000000       0.00000000       0.00000000 
O       0.51565700      -2.13355300       0.01945100 
C       1.60042900      -2.87886300       0.32242800 
C       1.43192900      -4.25140300       0.53504700 
C       2.52290300      -5.05081200       0.87847200 
C       3.79040100      -4.48444500       1.00935900 
C       3.97325300      -3.11571900       0.79849600 
C       2.88630600      -2.29220400       0.45074900 
C       3.07307800      -0.82636800       0.29458600 
N       4.24098200      -0.12204400       0.49509000 
C       3.89023200       1.18925700       0.39191800 
C       4.61261500       2.37674000       0.55616500 
C       3.88719600       3.60591200       0.46543700 
C       2.47189900       3.61985300       0.25043100 
C       1.81287800       2.39152300       0.09358500 
O       0.57521000       2.13355300      -0.01945100 
C       2.58368900       1.24086200       0.13392300 
N       2.10000000       0.00000000       0.00000000 
H       0.44947900      -4.69775600       0.44464500 
H       2.38297800      -6.11052500       1.05318800 
H       4.63230400      -5.10583000       1.28692200 
H       4.96742000      -2.70949000       0.92326200 
H       5.18562800      -0.48613500       0.74420900 
H       5.67465200       2.36474300       0.76205100 
H       4.41309600       4.54235100       0.59535200 
H       1.92273000       4.55191000       0.22903500 
O      -2.08000000       0.00000000       0.00000000 
H      -3.50051500       0.00000000       0.00000000 
N       0.00000000       0.00000000       2.10000000 
C       1.12165800      -0.28491300       2.84271500 
C       1.12356700      -0.28320700       4.23278100 
C      -0.04364800       0.00671400       4.91950200 
C      -0.06415800       0.00734800       6.32155600 
C      -1.24882000       0.29499700       6.99919100 
C      -2.41363900       0.58271500       6.28172800 
C      -2.39767300       0.58829100       4.88084600 
C      -1.21034000       0.29985800       4.18865900 
C      -1.16042000       0.29702100       2.77955400 
H       2.05305000      -0.51994400       2.40321800 
H       2.04172200      -0.51217700       4.76327000 
H       0.83339100      -0.21497500       6.88808100 
H      -1.26198400       0.29316100       8.08150800 
H      -3.32947200       0.80179900       6.81365200 
H      -3.30991300       0.81364800       4.34263400 
H      -2.06199800       0.53840300       2.24579700 
N       0.00000000       0.00000000      -2.10000000 
C       1.14838000      -0.27394400      -2.80172400 
C       1.17052300      -0.27273500      -4.19611300 
C       0.00101800      -0.00427700      -4.90330700 
C      -0.01096100      -0.00572800      -6.30610500 
C      -1.19855900       0.25467000      -6.99510100 
C      -2.37672900       0.51824900      -6.29017600 
C      -2.37208300       0.52744300      -4.89223300 
C      -1.18386300       0.26715500      -4.19151300 
C      -1.15431300       0.27166100      -2.78972100 
H       2.07233300      -0.50061300      -2.30336200 
H       2.09768800      -0.48680000      -4.71495500 
H       0.89429300      -0.20849500      -6.86670700 
H      -1.20609000       0.25149800      -8.07692700 
H      -3.29441700       0.71570500      -6.82838100 
H      -3.29382300       0.73288600      -4.36119400 
H      -2.06566900       0.49421100      -2.26537300 
