36
Properties=species:S:1:pos:R:3 pbc="F F F"
Fe       0.05143230       0.34871337      -0.01791881 
O       2.78455077       3.44764307       0.58602525 
C       2.17197875       2.36611497       0.49530123 
O       0.89245591       2.24744588       0.30686390 
C       2.90000573       1.04989879       0.62333695 
C       4.25992327       0.86042946       0.86744019 
C       4.73048140      -0.45255757       0.98830951 
C       3.84861837      -1.53342984       0.87162243 
C       2.50416134      -1.25851720       0.62163506 
C       1.38700039      -2.25938556       0.45817656 
O       0.22769083      -1.72722849       0.21131195 
O       1.60338804      -3.48147331       0.56395197 
N       2.07741661       0.00222997       0.50474845 
H       4.92401478       1.71142703       0.96166367 
H       5.78315677      -0.63296331       1.17732625 
H       4.19036402      -2.55724462       0.96760994 
C      -4.29810736      -0.22979309      -0.69454291 
C      -2.93667026      -0.00255275      -0.85674028 
N      -2.12122067       0.09905533       0.20907063 
C      -2.66641442      -0.03012813       1.43530202 
C      -1.72182183       0.10549895       2.57399207 
N      -0.44674304       0.37899737       2.23640802 
C       0.43522859       0.53412636       3.23899848 
C       0.04873111       0.40550635       4.56840209 
C      -1.28994992       0.10843145       4.80981979 
N      -2.18517894      -0.03773686       3.81829172 
N      -3.95810762      -0.25475110       1.68184373 
C      -4.76573274      -0.35301023       0.61136056 
H      -4.96042503      -0.30909074      -1.54732984 
H      -2.46904840       0.10243412      -1.82860041 
H       1.45844092       0.76430817       2.96744155 
H       0.76078639       0.52893757       5.37479000 
H      -1.66620166      -0.01523904       5.82005581 
H      -5.81513065      -0.53605912       0.81785793 
O      -0.02938497       0.42881258      -1.88657867 
H       0.02575917       1.34975716      -2.19595576 
