65
Properties=species:S:1:pos:R:3 pbc="F F F"
Fe       0.14315374      -0.07926457      -0.27428128 
C      -0.00298790       4.35152841      -0.84940159 
C       1.32716797       4.74290585      -0.70093759 
C       2.29127551       3.78127832      -0.39755088 
C       1.89603969       2.45059476      -0.24253533 
C       2.83056520       1.34671499       0.05600895 
C       4.19143841       1.51189516       0.33104197 
C       4.95944374       0.37999063       0.60046671 
C       4.36945218      -0.88315096       0.58849641 
C       3.00380765      -0.98255236       0.30587108 
C       2.25437122      -2.25205505       0.23576838 
C       2.81599257      -3.51274367       0.45269743 
C       2.00521976      -4.64184784       0.32724718 
C       0.66169763      -4.48882252      -0.01678695 
C       0.16795493      -3.20008121      -0.21425051 
N       0.94617313      -2.11505852      -0.08328231 
N       2.26804937       0.12051922       0.05128808 
N       0.59715724       2.07906567      -0.37582928 
C      -0.32603548       3.00633962      -0.68330105 
H      -0.78180841       5.06394872      -1.09451122 
H       1.61629825       5.78064138      -0.82659489 
H       3.33223010       4.06156070      -0.29250991 
H       4.64092755       2.49690017       0.33761756 
H       6.01691452       0.48236646       0.81764516 
H       4.95991960      -1.76821622       0.78963826 
H       3.86265432      -3.61449230       0.71214987 
H       2.42328527      -5.62892182       0.49205119 
H       0.00414414      -5.34239427      -0.13137113 
H      -0.86748884      -3.01975397      -0.48290843 
H      -1.34339395       2.65544102      -0.80321996 
N      -2.19094559       0.42207329      -0.01885225 
C      -2.78259098       1.07621289       1.01488851 
C      -4.15364956       1.21015322       1.10597116 
C      -4.95160963       0.63624054       0.09926920 
C      -6.37084858       0.68153834       0.07268691 
C      -7.05059134       0.08455465      -0.96609575 
C      -6.35349161      -0.57604001      -2.01722081 
C      -4.97886012      -0.63680713      -2.02444175 
C      -4.25435218      -0.03168620      -0.96158614 
N      -2.89533942      -0.11121671      -0.98677774 
H      -2.10720403       1.49158467       1.75231657 
H      -4.60037855       1.74329149       1.93842162 
H      -6.89770557       1.18698442       0.87550817 
H      -8.13505127       0.11422502      -0.99046568 
H      -6.92018278      -1.03600870      -2.82004593 
H      -4.43064959      -1.13631307      -2.81626772 
N      -0.06779820      -0.20177702       1.92230571 
C      -0.84026322      -1.20501425       2.45636872 
C      -1.02838104      -1.35558626       3.80804392 
C      -0.41706645      -0.44738458       4.71350149 
C      -0.55941958      -0.52544242       6.12276230 
C       0.06588639       0.40507214       6.92952236 
C       0.85432095       1.44566203       6.37260252 
C       1.01203130       1.54682930       5.00664269 
C       0.37964872       0.60203321       4.15453793 
C       0.50963140       0.66677215       2.74702454 
H      -1.30135150      -1.87868687       1.74344632 
H      -1.64637890      -2.16579121       4.18046356 
H      -1.16257862      -1.31996155       6.55105787 
H      -0.04464005       0.34439959       8.00781587 
H       1.33334600       2.16286253       7.03128446 
H       1.61276718       2.33761485       4.56728352 
H       1.10274242       1.46255025       2.30874878 
O      -0.34100332      -0.29606888      -2.04856345 
H      -1.31897882      -0.39090648      -2.11045341 
