47
Properties=species:S:1:pos:R:3 pbc="F F F"
Fe       0.28484619      -0.05484307      -0.84416840 
O      -0.95930091      -4.01241258      -1.00394869 
C      -0.85632156      -2.77619215      -0.89643746 
O       0.24557497      -2.11092486      -1.06857848 
C      -2.04988706      -1.92690016      -0.54844247 
C      -3.33765943      -2.40761458      -0.32563067 
C      -4.33539557      -1.47866565      -0.01441749 
C      -4.02713215      -0.11963152       0.06337960 
C      -2.70769281       0.28804973      -0.17449123 
C      -2.20604289       1.67683459      -0.13916298 
C      -2.99933488       2.79794359       0.11290734 
C      -2.40113566       4.05914776       0.12063163 
C      -1.03229788       4.17140911      -0.12464715 
C      -0.30148071       3.00917325      -0.37016647 
N      -0.87540998       1.79626384      -0.37565483 
N      -1.76262354      -0.62084803      -0.46997632 
H      -3.54542031      -3.46863148      -0.39584703 
H      -5.35167521      -1.81135902       0.16622368 
H      -4.79709687       0.60360416       0.30310968 
H      -4.06117105       2.69059571       0.29877212 
H      -3.00097876       4.94148998       0.31593879 
H      -0.53379729       5.13347385      -0.12706528 
H       0.76525758       3.03861177      -0.56721677 
N       2.48713843       0.10775824      -0.73113788 
C       3.07692882       0.96255664       0.12960545 
C       4.45180715       1.17785153       0.13149858 
C       5.24339461       0.47809783      -0.78206097 
C       4.63093107      -0.41117365      -1.66837413 
C       3.24805302      -0.56514096      -1.61756865 
H       2.42178234       1.47630222       0.82478777 
H       4.88518766       1.87827877       0.83638190 
H       6.31839794       0.62413716      -0.80332830 
H       5.20807991      -0.97390094      -2.39315338 
H       2.72398877      -1.23376833      -2.29159269 
N       0.53728667      -0.37389449       1.41449506 
C       0.01459211       0.39402470       2.39198910 
C       0.20022711       0.11490277       3.74431694 
C       0.95760280      -1.00043230       4.10596015 
C       1.50579880      -1.79493250       3.09675888 
C       1.27557830      -1.44801078       1.76850899 
H      -0.56485855       1.25425756       2.07834724 
H      -0.24211874       0.76481741       4.49091223 
H       1.11942739      -1.24388485       5.15100106 
H       2.10419124      -2.66937519       3.32662645 
H       1.68485070      -2.03647796       0.95482686 
O       0.18131790       0.38400831      -2.66918255 
H       0.17709036       1.33872454      -2.85412922 
