49
Properties=species:S:1:pos:R:3 pbc="F F F"
Fe      -0.39665531       0.20350031       0.13244588 
O       1.86245588       3.67733368      -0.02446597 
C       1.43415765       2.51571886       0.11191373 
O       0.17609997       2.19028304       0.12403150 
C       2.38081818       1.35898036       0.30037315 
C       3.76631182       1.46544951       0.39101778 
C       4.49552511       0.29468908       0.62221385 
C       3.83316258      -0.92531307       0.75981944 
C       2.43563699      -0.95208199       0.64531752 
C       1.59001385      -2.15988171       0.75366080 
C       2.09430920      -3.40075358       1.15286800 
C       1.22148443      -4.48233923       1.25023747 
C      -0.12257799      -4.29646157       0.93727279 
C      -0.55895427      -3.03585954       0.51364868 
C      -2.00920879      -2.85083108       0.08658585 
O      -2.87077288      -3.55118498       0.69166045 
O      -2.22788395      -2.03443031      -0.86205399 
N       0.28216342      -1.98450618       0.43398435 
N       1.75282714       0.17998866       0.41387212 
H       4.24963410       2.42991452       0.29161461 
H       5.57664231       0.33169464       0.70019082 
H       4.39317571      -1.83373944       0.94478665 
H       3.14420911      -3.51580031       1.39227844 
H       1.58653291      -5.45391633       1.56532246 
H      -0.83585817      -5.10939908       0.99780869 
O      -2.21682826       0.58542979      -0.09593623 
H      -2.57504699      -0.28976736      -0.36976466 
N      -0.51708323       0.09807255       2.37615437 
C       0.39632859       0.62334776       3.21729135 
C       0.27408118       0.53379184       4.60164659 
C      -0.83263234      -0.12450676       5.14069886 
C      -1.78236500      -0.66476988       4.27127808 
C      -1.59161370      -0.52961592       2.89900433 
H       1.24015645       1.13233618       2.76725787 
H       1.03477238       0.97560708       5.23530426 
H      -0.95459554      -0.21110217       6.21541881 
H      -2.66152274      -1.17968727       4.64174595 
H      -2.31089260      -0.92290875       2.18993168 
N       0.12252735       0.10655325      -2.04113682 
C       0.76333240      -0.91901472      -2.63714447 
C       1.03248945      -0.93463602      -4.00307109 
C       0.62427140       0.14848375      -4.78390853 
C      -0.04131303       1.21008596      -4.16743162 
C      -0.27549440       1.15176343      -2.79630312 
H       1.06166404      -1.74192855      -1.99835272 
H       1.55005231      -1.78253897      -4.43734910 
H       0.81945863       0.16417578      -5.85124521 
H      -0.37903542       2.07128237      -4.73278252 
H      -0.79150391       1.95045436      -2.27576210 
