60
Properties=species:S:1:pos:R:3 pbc="F F F"
Mn      -0.23443849       0.29614226      -0.36411501 
O       0.02381218       2.28841802      -0.35550700 
C       1.09736916       3.07793824      -0.43157956 
C       0.89090254       4.47609971      -0.34125681 
C       1.94611148       5.37564544      -0.42695808 
C       3.26471104       4.92251465      -0.60484230 
C       3.50290528       3.55827126      -0.69317933 
C       2.44834469       2.62385889      -0.60936795 
C       2.68267811       1.20364363      -0.69873696 
N       3.86867282       0.52576165      -0.86752603 
C       3.61224099      -0.85315473      -0.88735530 
C       4.34436357      -2.04616595      -1.00452988 
C       3.58001338      -3.22255487      -0.94025880 
C       2.17118087      -3.27688141      -0.76824279 
C       1.44023604      -2.08019900      -0.65281802 
O       0.12786844      -1.85708826      -0.47780702 
C       2.23557586      -0.93496229      -0.72900022 
N       1.68966158       0.31545815      -0.61656116 
H      -0.12793010       4.82727480      -0.20560848 
H       1.74348266       6.44064422      -0.35595811 
H       4.08714003       5.62683509      -0.67165565 
H       4.51916132       3.19931072      -0.83066236 
H       4.77813837       0.96461095      -0.95410038 
H       5.42011922      -2.07429403      -1.13200034 
H       4.10674167      -4.16926436      -1.02607556 
H       1.67588437      -4.24250139      -0.72571916 
O      -2.05405314       0.28216388      -0.04230467 
H      -2.15929449       0.08973991       0.91580948 
N      -0.00909365      -0.03801542       1.97662853 
C       1.17656865      -0.11119289       2.63734857 
C       1.25176858      -0.37899592       3.98926818 
C       0.05281795      -0.58237461       4.69720432 
C      -0.02272218      -0.86815933       6.08684897 
C      -1.25310748      -1.05002796       6.67832984 
C      -2.45319712      -0.95559225       5.91831019 
C      -2.41592690      -0.67935385       4.57065765 
C      -1.15846383      -0.48800105       3.93581404 
N      -1.14888400      -0.21812632       2.59970849 
H       2.05605015       0.05998230       2.02856185 
H       2.21279861      -0.43027907       4.49013218 
H       0.89544322      -0.93898872       6.66117895 
H      -1.31663959      -1.26934976       7.73931400 
H      -3.40666005      -1.10479003       6.41440456 
H      -3.32049786      -0.60400827       3.97629777 
N      -0.53800766       0.29702600      -2.69296150 
C       0.15948235       1.15474981      -3.48783793 
C       0.07469746       1.12380487      -4.86402714 
C      -0.76679567       0.16343309      -5.45677781 
C      -0.94924493       0.00517735      -6.85695578 
C      -1.79832873      -0.97246092      -7.32703491 
C      -2.49863070      -1.82758491      -6.43044063 
C      -2.34469138      -1.69917954      -5.06891444 
C      -1.47263116      -0.69941844      -4.55646483 
N      -1.33869590      -0.60843427      -3.20152533 
H       0.78826966       1.86248465      -2.96193765 
H       0.64480430       1.81967695      -5.47061360 
H      -0.41259019       0.66018439      -7.53605826 
H      -1.94003439      -1.09838737      -8.39570146 
H      -3.15975494      -2.58871834      -6.83190189 
H      -2.86969306      -2.34295736      -4.37076146 
