52
Properties=species:S:1:pos:R:3 pbc="F F F"
Mn      -0.45323799      -0.22337154       0.26859042 
O       0.27288331       3.75189961       1.25367164 
C       0.54185784       2.54658167       1.04266990 
O      -0.35025024       1.73224196       0.54972142 
C       1.90770505       2.02174925       1.33003998 
C       2.92142575       2.84610285       1.83739339 
C       4.22017892       2.36410273       2.07311818 
C       4.57336126       1.03821047       1.80610155 
C       3.56701671       0.21646496       1.30079188 
N       3.54551207      -1.11767247       0.92446242 
C       2.29148986      -1.43858005       0.49682289 
C       1.87798107      -2.73802490       0.01899456 
C       2.83053082      -3.75274160      -0.23022109 
C       2.44513318      -5.00799306      -0.67588857 
C       1.08052748      -5.27334669      -0.88428368 
C       0.12559350      -4.29254819      -0.65307401 
C       0.49225250      -3.00523706      -0.19666564 
O      -0.48424213      -2.12874072       0.03204852 
N       1.49755216      -0.35585316       0.58033661 
C       2.25906317       0.68675708       1.07304321 
H       2.68953970       3.88493850       2.04612654 
H       4.97053784       3.04087481       2.46795171 
H       5.57719315       0.66787308       1.98206958 
H       4.32681239      -1.76003343       0.98980476 
H       3.88659934      -3.54481360      -0.08696421 
H       3.19170288      -5.77147275      -0.86608395 
H       0.76515513      -6.25193755      -1.23436967 
H      -0.92985835      -4.49107735      -0.81248677 
O      -2.30056053      -0.19401773      -0.01633063 
H      -2.61098316       0.71969299       0.10714426 
N      -0.69543345      -0.38958960       2.67576763 
C      -1.42608734       0.52044311       3.34858319 
C      -1.52089078       0.53371718       4.73952327 
C      -0.82894105      -0.43634916       5.46844009 
C      -0.07111098      -1.38397782       4.77695889 
C      -0.03231547      -1.32332700       3.38470353 
H      -1.94620666       1.25687627       2.74389487 
H      -2.12217430       1.28924500       5.23346121 
H      -0.87917654      -0.45301518       6.55252396 
H       0.48187623      -2.15627799       5.30045765 
H       0.54566515      -2.04116601       2.80996074 
N       0.04202804       0.10982477      -2.07248354 
C      -0.57223812      -0.65704437      -2.99382327 
C      -0.24967457      -0.61198912      -4.34935838 
C       0.75252843       0.26448245      -4.77170280 
C       1.39217880       1.06369009      -3.82131276 
C       1.00699023       0.95372046      -2.48618609 
H      -1.34427809      -1.32384368      -2.62250883 
H      -0.77372002      -1.25109130      -5.05170552 
H       1.02990401       0.32294244      -5.81946672 
H       2.17545457       1.75904003      -4.10302118 
H       1.47937123       1.55503833      -1.71514414 
