64
Properties=species:S:1:pos:R:3 pbc="F F F"
Mn      -0.24485316       0.01624251       0.17562380 
C      -0.23870298      -4.52781775      -0.02501878 
C       1.12145998      -4.82950332       0.02702627 
C       2.04497345      -3.79129187       0.15161748 
C       1.58200244      -2.47312814       0.22572073 
C       2.48759224      -1.30459669       0.35147504 
C       3.87691138      -1.41097277       0.48710302 
C       4.63073123      -0.24461323       0.60286058 
C       3.99965583       0.99785287       0.58609118 
C       2.60791267       1.04131700       0.44692562 
C       1.82081406       2.29798283       0.42523139 
C       2.39791271       3.57158475       0.46792268 
C       1.56677945       4.69171528       0.44394664 
C       0.18428603       4.51804108       0.37290172 
C      -0.31912263       3.21915005       0.32851717 
N       0.47906044       2.14091833       0.35881768 
N       1.89112396      -0.09530480       0.33096036 
N       0.25910883      -2.18844743       0.17837788 
C      -0.62461346      -3.19047025       0.05068265 
H      -0.99023292      -5.30217897      -0.12576184 
H       1.46461692      -5.85673750      -0.03354123 
H       3.10507899      -4.00921493       0.18270275 
H       4.36290158      -2.37810160       0.50715012 
H       5.70812131      -0.30423436       0.71081762 
H       4.57877650       1.90729717       0.68390444 
H       3.47304026       3.69194196       0.51431917 
H       1.99814779       5.68643515       0.47650128 
H      -0.49397831       5.36290976       0.34898788 
H      -1.38521418       3.02777768       0.26495970 
H      -1.67176630      -2.91207234       0.00708007 
N      -2.38898540      -0.31034016      -0.03574662 
C      -3.19837973      -0.83922907       0.92069855 
C      -4.56787901      -0.90243596       0.75690674 
C      -5.12697170      -0.39679518      -0.42980102 
C      -6.51610661      -0.38085191      -0.72253491 
C      -6.95109758       0.13963945      -1.92134153 
C      -6.03076892       0.65903488      -2.87631980 
C      -4.67803830       0.65761988      -2.62787566 
C      -4.20365815       0.13132197      -1.39500469 
N      -2.86523118       0.15428831      -1.16700209 
H      -2.70313884      -1.21475358       1.80666547 
H      -5.19164193      -1.33222433       1.53296658 
H      -7.21344782      -0.77866621       0.00731317 
H      -8.01183048       0.15731940      -2.14931274 
H      -6.40914402       1.06107093      -3.81016967 
H      -3.96185757       1.05013912      -3.34172266 
N      -0.34744020       0.05348345       2.26470540 
C      -1.13929141       0.96568683       2.89645987 
C      -1.18221664       1.05017622       4.27194619 
C      -0.38345828       0.16784327       5.02257398 
C      -0.32412359       0.14354923       6.44035804 
C       0.49537795      -0.76768749       7.07038788 
C       1.28482109      -1.68797170       6.32406808 
C       1.25158834      -1.69240903       4.94906451 
C       0.41498870      -0.76088025       4.27362769 
N       0.41017452      -0.79320605       2.91497061 
H      -1.72803115       1.60758650       2.25290082 
H      -1.81909523       1.78210975       4.75617413 
H      -0.92699434       0.84598725       7.00634863 
H       0.54486188      -0.79014089       8.15417174 
H       1.91848085      -2.39186815       6.85331175 
H       1.84525089      -2.38475516       4.36182015 
O      -0.15671129       0.08355208      -1.62975903 
H      -1.08011097       0.25240411      -1.93055966 
