50
Properties=species:S:1:pos:R:3 pbc="F F F"
Mn      -0.14874930      -1.22611130      -0.03240844 
O       2.13346672      -2.48363185       3.36380830 
C       1.62708997      -2.15552431       2.26309554 
O       0.44376573      -1.69130071       2.08816702 
C       2.45440133      -2.29849354       1.00356127 
C       3.76929706      -2.76506944       0.97074480 
C       4.42291285      -2.83502352      -0.26207800 
C       3.75543867      -2.43668421      -1.42306024 
C       2.44111517      -1.98035117      -1.31497610 
C       1.60021461      -1.51609690      -2.48530204 
O       0.40984036      -1.13546121      -2.19124425 
O       2.10072118      -1.53176311      -3.63577247 
N       1.82756284      -1.92504169      -0.12249374 
H       4.25853518      -3.06126270       1.89088355 
H       5.44464844      -3.19507265      -0.31745929 
H       4.23405927      -2.47569669      -2.39414214 
N      -2.00245706      -0.23903334      -0.35328653 
C      -2.16470728       0.61130583      -1.40318558 
C      -3.36280266       1.25717764      -1.62486024 
C      -4.42396845       1.02387609      -0.73080158 
C      -5.70795007       1.62049178      -0.83683611 
C      -6.67466056       1.32380792       0.09854587 
C      -6.40805820       0.42738650       1.17206468 
C      -5.17550618      -0.16912126       1.30455306 
C      -4.15980078       0.11912642       0.35211505 
N      -2.95359155      -0.49135938       0.50950463 
H      -1.29826959       0.73418569      -2.04057578 
H      -3.47753952       1.92738684      -2.46984464 
H      -5.90609021       2.30316237      -1.65673560 
H      -7.65770722       1.77705827       0.02240219 
H      -7.19231460       0.21563497       1.89120571 
H      -4.95436724      -0.85523462       2.11515746 
N       0.63011412       0.67768856       0.37235095 
C       0.13974004       1.34599330       1.45337122 
C       0.61731974       2.59004489       1.80488250 
C       1.63449501       3.16216742       1.01809567 
C       2.22039757       4.43167516       1.26264342 
C       3.21232997       4.89503106       0.42607542 
C       3.66119809       4.12154991      -0.68140536 
C       3.11523702       2.88707037      -0.94776872 
C       2.08956280       2.38541759      -0.09999237 
N       1.57254176       1.16088769      -0.39269418 
H      -0.63586975       0.83434929       2.00905010 
H       0.21523082       3.10891606       2.66807575 
H       1.87588102       5.01756688       2.10848901 
H       3.66361319       5.86484938       0.60888526 
H       4.44446062       4.51660536      -1.31979640 
H       3.44380946       2.28312726      -1.78680533 
O      -0.88979385      -2.89456615      -0.16980786 
H      -0.94605456      -3.13182873      -1.11321342 
