53
Properties=species:S:1:pos:R:3 pbc="F F F"
Mn      -0.12509436       0.02963760       0.19505188 
O       2.13212411      -3.51824271       0.37223779 
C       1.64225950      -2.36663672       0.33958959 
O       0.38986384      -2.08045922       0.31783548 
C       2.56624069      -1.16955638       0.31947240 
C       3.95394134      -1.27434407       0.33445003 
C       4.70994246      -0.10109272       0.30690880 
C       4.06584611       1.13421058       0.27078060 
C       2.66634503       1.17693960       0.26057071 
C       1.86535584       2.42122620       0.23512227 
C       2.41266667       3.70695085       0.24918813 
C       1.54796912       4.80272863       0.22976850 
C       0.16925999       4.59039253       0.19610552 
C      -0.30169567       3.27715170       0.18361382 
N       0.52497158       2.22134815       0.20462905 
N       1.94851726       0.02845143       0.28244224 
H       4.41585177      -2.25362488       0.36484221 
H       5.79339901      -0.14686262       0.31424748 
H       4.64270167       2.05008668       0.24978036 
H       3.48496399       3.85800017       0.27815414 
H       1.95138894       5.80952264       0.24187224 
H      -0.53021552       5.41788843       0.18042709 
H      -1.36375500       3.05336107       0.15792446 
O      -1.94248823      -0.09035000       0.08740252 
H      -2.31758351       0.77764885      -0.14903264 
N      -0.23038504       0.07669814       2.34699167 
C       0.62570424       0.77737608       3.15865018 
C       0.56320559       0.70662067       4.52846594 
C      -0.41296901      -0.11309984       5.15316688 
C      -0.54955448      -0.23998399       6.55970250 
C      -1.53364847      -1.05452405       7.08388499 
C      -2.41794892      -1.77348388       6.23730700 
C      -2.30823800      -1.67289074       4.86672146 
C      -1.30380434      -0.84157185       4.30144687 
C      -1.15464117      -0.70302521       2.90205573 
H       1.35841521       1.40241608       2.66579553 
H       1.26114701       1.28062290       5.12887699 
H       0.12488397       0.30940254       7.20928965 
H      -1.63763871      -1.14954918       8.16041130 
H      -3.18334183      -2.40403401       6.67812890 
H      -2.97791458      -2.21648526       4.20702367 
H      -1.81513114      -1.23510265       2.22551685 
N       0.01184306      -0.08798832      -1.93168870 
C       0.62308466       0.80730395      -2.73498497 
C       0.66629587       0.65032576      -4.11713872 
C       0.06019410      -0.46843240      -4.69069621 
C      -0.57150662      -1.39394986      -3.85745539 
C      -0.57818107      -1.17027466      -2.48495540 
H       1.07979619       1.66505529      -2.25679098 
H       1.16674438       1.39739150      -4.72241317 
H       0.07803005      -0.61520037      -5.76556573 
H      -1.05790651      -2.27654836      -4.25669250 
H      -1.06021209      -1.85567109      -1.79854701 
