53
Properties=species:S:1:pos:R:3 pbc="F F F"
Mn      -0.19612825      -0.17059506      -0.25310987 
O       1.77455981       3.55097847      -0.70273694 
C       1.39790841       2.37167880      -0.51061551 
O       0.18682107       1.99725117      -0.29359268 
C       2.42801606       1.26056831      -0.51014856 
C       3.79807485       1.48244292      -0.63604934 
C       4.65207822       0.37756045      -0.60752475 
C       4.12171620      -0.90449111      -0.47306884 
C       2.73320828      -1.05819496      -0.36297987 
C       2.03891726      -2.36182525      -0.26174765 
C       2.70211942      -3.59229571      -0.23452738 
C       1.94660947      -4.76339398      -0.16868909 
C       0.55421754      -4.67926337      -0.13478059 
C      -0.03554159      -3.41573143      -0.16029635 
N       0.68877837      -2.28720540      -0.21741528 
N       1.92670981       0.02105424      -0.36869026 
H       4.17479418       2.49165090      -0.74887958 
H       5.72464660       0.51198941      -0.69540202 
H       4.77593913      -1.76730588      -0.46103092 
H       3.78369237      -3.64027531      -0.26595902 
H       2.44258680      -5.72787224      -0.14819521 
H      -0.06682173      -5.56630069      -0.09060893 
H      -1.11388553      -3.29419419      -0.13551668 
N      -2.28099762       0.03405216      -0.04363353 
C      -3.10079698      -0.84547144      -0.70603142 
C      -4.46875126      -0.75726307      -0.63511300 
C      -5.07416127       0.27522840       0.13022529 
C      -6.47809345       0.44342291       0.24420261 
C      -6.98783327       1.47574994       1.00673648 
C      -6.12824431       2.37912650       1.68489122 
C      -4.75949246       2.24240254       1.59348303 
C      -4.20924629       1.18899944       0.81451419 
C      -2.81276233       1.00742340       0.69037939 
H      -2.60058383      -1.60641035      -1.29261664 
H      -5.08412755      -1.47328034      -1.16958674 
H      -7.13737482      -0.24608525      -0.27393549 
H      -8.06263196       1.60262080       1.09206270 
H      -6.55745274       3.18080606       2.27711293 
H      -4.09050010       2.92682809       2.10630405 
H      -2.12628613       1.67703946       1.19928702 
N      -0.10573432      -0.17690785       1.83574843 
C      -0.81022028      -1.14314448       2.46924751 
C      -0.83635443      -1.25142786       3.85430519 
C      -0.11602302      -0.32985956       4.61749538 
C       0.60487959       0.66983073       3.96276078 
C       0.58713268       0.71732650       2.57215286 
H      -1.36226311      -1.83273934       1.84080415 
H      -1.41512255      -2.04272715       4.31620477 
H      -0.11970909      -0.38861367       5.70073188 
H       1.17587143       1.40946925       4.51183079 
H       1.12804328       1.48274031       2.03169124 
O      -0.36831715      -0.26915608      -2.06935973 
H      -0.37175343      -1.20518016      -2.33876404 
