52
Properties=species:S:1:pos:R:3 pbc="F F F"
Mn      -0.12264956      -0.04519885       0.14343488 
O       2.16549322      -3.52494402       0.85316618 
C       1.68322420      -2.38721629       0.64291621 
O       0.45018278      -2.13552037       0.38410431 
C       2.59670604      -1.18141037       0.68071525 
C       3.96700641      -1.26220571       0.92032755 
C       4.70947973      -0.07933875       0.91405215 
C       4.07451314       1.13568340       0.66172433 
C       2.69320497       1.14580822       0.42496471 
C       1.90257081       2.36065242       0.11864553 
C       2.46461340       3.63347902      -0.01928729 
C       1.63169450       4.70837568      -0.33176800 
C       0.26522033       4.48709337      -0.50408239 
C      -0.22233628       3.18965183      -0.34894878 
N       0.57361355       2.15379058      -0.03955609 
N       1.99165901      -0.00408359       0.44933872 
H       4.42761889      -2.22535809       1.10282759 
H       5.77782680      -0.10224373       1.09949935 
H       4.64449529       2.05620230       0.64901809 
H       3.52929388       3.78706922       0.10790925 
H       2.04942547       5.70314436      -0.44380292 
H      -0.41365227       5.29428628      -0.75336837 
H      -1.27579075       2.96560605      -0.47829309 
N      -2.26893809      -0.01770046       0.05219188 
C      -3.00791156       0.93714334       0.68158310 
C      -4.38621977       0.92167608       0.64388376 
C      -5.02371664      -0.12035364      -0.05453434 
C      -6.43108759      -0.26453430      -0.17146449 
C      -6.94923340      -1.32856371      -0.87672948 
C      -6.09604537      -2.28813497      -1.49157195 
C      -4.72778272      -2.17821804      -1.39883414 
C      -4.16701276      -1.08885510      -0.67728440 
N      -2.80997997      -1.00765240      -0.61005102 
H      -2.44280289       1.69760673       1.20654293 
H      -4.95860417       1.69410218       1.14578043 
H      -7.07742136       0.46894072       0.29947830 
H      -8.02442652      -1.44335985      -0.96886916 
H      -6.53738438      -3.11408224      -2.03946352 
H      -4.06133826      -2.89872824      -1.86090611 
N      -0.34774569       0.01137820       2.21925725 
C      -0.92300772      -1.06007917       2.81082263 
C      -1.14365572      -1.11107115       4.18250500 
C      -0.76281429      -0.02299296       4.97090752 
C      -0.17671692       1.08440919       4.35532847 
C       0.01286398       1.06943204       2.97740984 
H      -1.19808439      -1.87963233       2.15786599 
H      -1.60606934      -1.99079147       4.61486161 
H      -0.92196593      -0.03723857       6.04392929 
H       0.13198444       1.95301779       4.92521399 
H       0.45884921       1.91030017       2.46129774 
O       0.03228599      -0.18880669      -1.67132217 
H      -0.12850771       0.67725587      -2.08687411 
