36
Properties=species:S:1:pos:R:3 pbc="F F F"
Mn      -0.04868745       0.06236764       0.23002734 
O       2.51393929       3.43809682       0.56974216 
C       1.94076475       2.32513256       0.52030521 
O       0.67204873       2.13452891       0.43610538 
C       2.76796665       1.06091951       0.57401864 
C       4.15615633       1.02613869       0.70363226 
C       4.78837987      -0.21815740       0.76848930 
C       4.02465474      -1.38632370       0.70918483 
C       2.63985268      -1.27541864       0.57722733 
C       1.69161822      -2.45406801       0.51785166 
O       0.44978401      -2.15088815       0.41295953 
O       2.16457252      -3.61520639       0.57861098 
N       2.04848924      -0.07144233       0.50847566 
H       4.71623620       1.95211269       0.75468898 
H       5.86676686      -0.27698185       0.86969687 
H       4.48282264      -2.36637255       0.76468394 
C      -4.30978252       0.04325020      -0.73476308 
C      -2.92506835       0.04780135      -0.85500452 
N      -2.15006566       0.07241190       0.24310200 
C      -2.74743272       0.09005097       1.45445626 
C      -1.81277943       0.12002220       2.60440065 
N      -0.49878799       0.11386717       2.27520546 
C       0.40094786       0.15740925       3.27590639 
C      -0.01408436       0.20112538       4.60112625 
C      -1.38601985       0.19472944       4.83913476 
N      -2.29071308       0.15575213       3.84483293 
N      -4.06167384       0.08678508       1.65608792 
C      -4.83583134       0.06294734       0.55548783 
H      -4.94781483       0.02458876      -1.60908348 
H      -2.40741440       0.03161900      -1.80726770 
H       1.44799577       0.15626971       3.00105790 
H       0.70538311       0.23700608       5.40909558 
H      -1.78241169       0.22226911       5.84838578 
H      -5.90729457       0.05952542       0.72411780 
O       0.03275134       0.01943955      -1.58443811 
H       0.35017926       0.88729917      -1.89624970 
