51
Properties=species:S:1:pos:R:3 pbc="F F F"
Mn       0.12169729       0.44760466       0.08128324 
O       3.22375890       3.33975510       0.38013246 
C       2.46071680       2.35063019       0.29476320 
O       1.17770069       2.37311019       0.38596925 
C       3.05166558       0.97430632       0.07342323 
C       4.41520157       0.70717534      -0.03988035 
C       4.82677362      -0.61788561      -0.20395523 
C       3.87314924      -1.63825476      -0.23384008 
C       2.52567232      -1.30141256      -0.11256318 
C       1.39426330      -2.30536629      -0.09121736 
O       0.22834013      -1.79740657       0.08428255 
O       1.65626172      -3.52356995      -0.22890864 
N       2.14299636      -0.01813863       0.02460176 
H       5.12686015       1.52297557       0.00477553 
H       5.88128911      -0.85403442      -0.29733264 
H       4.15630456      -2.67820201      -0.34436673 
O      -1.68713579       0.67551215       0.08576129 
H      -1.96096766       0.60834941       1.03133382 
N       0.02572966       0.33258022       2.25266390 
C       1.11352482       0.19444491       3.05606180 
C       0.99073222       0.04496605       4.42276581 
C      -0.29635747       0.04134717       4.98800300 
C      -0.56812315      -0.11094925       6.37321714 
C      -1.87297382      -0.09745432       6.81398830 
C      -2.95541773       0.06880658       5.90368817 
C      -2.72908504       0.21863063       4.55520306 
C      -1.39086700       0.20468667       4.07501466 
N      -1.19122121       0.34170161       2.73831781 
H       2.07498085       0.20593586       2.56251342 
H       1.87494392      -0.06878471       5.04042398 
H       0.26048435      -0.23672474       7.06231330 
H      -2.08770662      -0.21505425       7.87116243 
H      -3.97086084       0.07516978       6.28571960 
H      -3.54073666       0.34455270       3.84679642 
N       0.05147879       0.44731958      -2.03753171 
C       0.75881199       1.36650884      -2.77126927 
C       0.66821304       1.43285700      -4.13894437 
C      -0.18245259       0.53563017      -4.83634264 
C      -0.34381891       0.54882001      -6.24574720 
C      -1.20108845      -0.35013299      -6.84811739 
C      -1.92777182      -1.29674049      -6.07912161 
C      -1.78992644      -1.33671898      -4.70793620 
C      -0.91628689      -0.42058363      -4.06208107 
C      -0.75305509      -0.41099940      -2.65715929 
H       1.38560285       2.04556062      -2.20769845 
H       1.24201160       2.17682009      -4.68139145 
H       0.21065124       1.27265404      -6.83501482 
H      -1.32612771      -0.33627459      -7.92645888 
H      -2.59554225      -1.99013149      -6.58001973 
H      -2.34086084      -2.05461762      -4.10790816 
H      -1.29803968      -1.11226421      -2.03397867 
