50
Properties=species:S:1:pos:R:3 pbc="F F F"
Mn      -0.20410197      -0.21302871      -0.16494263 
C      -0.23233691       4.36691709       0.00707227 
C       1.12341505       4.68669063      -0.04713337 
C       2.06133712       3.65901991      -0.14234586 
C       1.61688960       2.33315617      -0.17790508 
C       2.53806700       1.17703419      -0.28135975 
C       3.92685533       1.29548012      -0.41862321 
C       4.69310729       0.13557147      -0.51539745 
C       4.07655556      -1.11387330      -0.47073622 
C       2.68631489      -1.16644862      -0.33015235 
C       1.90602229      -2.42267458      -0.25836037 
C       2.47354799      -3.69865326      -0.31165763 
C       1.63789321      -4.81354722      -0.23675689 
C       0.26017985      -4.63306164      -0.10890022 
C      -0.23708530      -3.33262369      -0.06197398 
N       0.56835744      -2.25927222      -0.13236239 
N       1.95372475      -0.03705930      -0.24077003 
N       0.29787305       2.02783626      -0.12082825 
C      -0.60001029       3.02289480      -0.03284580 
H      -0.99531430       5.13327695       0.07814161 
H       1.45158958       5.72008796      -0.01686284 
H       3.11786182       3.89115267      -0.18398581 
H       4.40286143       2.26706747      -0.45503146 
H       5.76962191       0.20517380      -0.62586002 
H       4.66452186      -2.01996089      -0.54406884 
H       3.54456538      -3.82468111      -0.41118092 
H       2.06186953      -5.81099950      -0.27856339 
H      -0.42014218      -5.47433606      -0.04840638 
H      -1.29872531      -3.13193777       0.03593885 
H      -1.64405195       2.73367321       0.00129760 
C      -4.50843669       0.64426547      -0.35143468 
C      -3.20222271       0.34854660      -0.72351536 
N      -2.24408178       0.21796490       0.21087468 
C      -2.58258306       0.39225295       1.50665347 
C      -1.46283601       0.23506435       2.46565269 
N      -0.26792238      -0.09327063       1.91403857 
C       0.77979130      -0.27201009       2.74214212 
C       0.63621567      -0.10819565       4.11391548 
C      -0.62594111       0.24468631       4.58413748 
N      -1.67902760       0.41238963       3.76513031 
N      -3.80405209       0.68127593       1.94667038 
C      -4.76221851       0.80332885       1.00988342 
H      -5.29203002       0.74825138      -1.09123683 
H      -2.89463792       0.21191785      -1.75386544 
H       1.72627952      -0.54634078       2.29341705 
H       1.47619147      -0.24939052       4.78198580 
H      -0.81062827       0.39658217       5.64202697 
H      -5.75808345       1.03692670       1.37063857 
O      -0.37462566      -0.16820707      -1.95805973 
H      -0.48285641      -1.06954418      -2.31362815 
