60
Properties=species:S:1:pos:R:3 pbc="F F F"
Mn      -0.08892166      -0.21737189      -0.07985998 
C      -0.19613139       4.33249887      -0.60509078 
C       1.15474517       4.67807712      -0.60324686 
C       2.11169937       3.68347046      -0.40235543 
C       1.68904764       2.36581733      -0.19988807 
C       2.63034483       1.23813053      -0.00277212 
C       4.00971322       1.40052862       0.17178815 
C       4.80156742       0.26521072       0.33095271 
C       4.21772572      -1.00008541       0.30395886 
C       2.83239871      -1.09623641       0.13248871 
C       2.09449956      -2.37882059       0.06465671 
C       2.71045287      -3.63307858       0.11212833 
C       1.91984995      -4.77795675       0.00839876 
C       0.53885514      -4.64774485      -0.14374309 
C      -0.00627367      -3.36541844      -0.17841259 
N       0.75388434      -2.26389120      -0.07295789 
N       2.07290377       0.01023299      -0.00356462 
N       0.37448592       2.03642404      -0.19197298 
C      -0.54116909       2.99756607      -0.39993549 
H      -0.97231739       5.07162808      -0.76573325 
H       1.46468751       5.70496776      -0.76419503 
H       3.16582812       3.93077985      -0.41898841 
H       4.45605022       2.38660701       0.19295529 
H       5.87189257       0.36579281       0.47328409 
H       4.82915486      -1.88645382       0.41709320 
H       3.78410129      -3.72015785       0.22291576 
H       2.38163468      -5.75887796       0.04244477 
H      -0.10673905      -5.51345180      -0.23375464 
H      -1.07330253      -3.20329629      -0.29299707 
H      -1.57938116       2.68581274      -0.40330766 
N      -2.20976928       0.08444318       0.06447894 
C      -2.98553116      -0.61938703      -0.82488972 
C      -4.35726018      -0.59969450      -0.77471504 
C      -5.01951736       0.17395667       0.21426170 
C      -6.43117857       0.24942979       0.33297051 
C      -6.99700646       1.02620802       1.32415124 
C      -6.18763371       1.75686275       2.23349017 
C      -4.81303623       1.70371628       2.14405318 
C      -4.20475899       0.91081070       1.13340971 
C      -2.79958563       0.81521033       1.00815757 
H      -2.44250939      -1.18577784      -1.57116242 
H      -4.93109854      -1.17552734      -1.49325946 
H      -7.05089187      -0.30861732      -0.36205516 
H      -8.07742292       1.08189926       1.41427655 
H      -6.66084797       2.35865404       3.00258133 
H      -4.18309381       2.25646768       2.83443663 
H      -2.15595748       1.35391747       1.69735581 
N      -0.06742894      -0.28734804       1.99609255 
C      -0.75900475      -1.28882028       2.58867638 
C      -0.81874148      -1.42861283       3.96973569 
C      -0.15047231      -0.50189181       4.77285783 
C       0.55291018       0.53662334       4.16083367 
C       0.57321163       0.61362354       2.77201554 
H      -1.27250811      -1.98069661       1.93099574 
H      -1.38274000      -2.24918948       4.39748062 
H      -0.18046782      -0.58614438       5.85399714 
H       1.08202854       1.28333785       4.74106666 
H       1.10430383       1.40940646       2.26637829 
O      -0.16811644      -0.29890135      -1.89444688 
H      -0.43326373       0.56610231      -2.25725714 
