58
Properties=species:S:1:pos:R:3 pbc="F F F"
Mn      -0.06117571       0.07104539      -0.16515257 
O       2.17580828      -3.42318011      -0.75402877 
C       1.69408256      -2.28806323      -0.54723196 
O       0.45868708      -2.02768647      -0.29206271 
C       2.60316678      -1.07846576      -0.57667754 
C       3.97877549      -1.14465405      -0.77438556 
C       4.71157606       0.04435696      -0.74207645 
C       4.06153169       1.25497427      -0.50544066 
C       2.67492701       1.26015152      -0.31503089 
C       1.86232085       2.46468435      -0.04298673 
C       2.38778729       3.75107597       0.09893505 
C       1.51137668       4.80965462       0.34561016 
C       0.14213840       4.55987641       0.44246355 
C      -0.30845724       3.24833546       0.29166449 
N       0.53064728       2.22809974       0.05818010 
N       1.97984415       0.09852281      -0.36707010 
H       4.45154325      -2.10453304      -0.94272093 
H       5.78527581       0.02957456      -0.89345773 
H       4.62369839       2.17988654      -0.47174816 
H       3.45338649       3.92910061       0.02118174 
H       1.89778619       5.81682391       0.45911114 
H      -0.56720295       5.35723732       0.63083555 
H      -1.36145610       2.99546764       0.35708912 
O      -1.86167844       0.16517074       0.02571954 
H      -2.03259167       0.05893707       0.99283089 
N       0.06737443      -0.10931369       2.04265632 
C       1.22218385      -0.20817565       2.75247228 
C       1.22085743      -0.35045947       4.12568654 
C      -0.01331751      -0.39773732       4.79718901 
C      -0.16203458      -0.54654458       6.20150777 
C      -1.42487485      -0.58289562       6.74989766 
C      -2.58578658      -0.47296207       5.93223631 
C      -2.47911726      -0.32697149       4.56857032 
C      -1.18648007      -0.28762852       3.97819606 
N      -1.10448593      -0.14596504       2.62914274 
H       2.13744865      -0.16835398       2.17769784 
H       2.15722885      -0.42642955       4.66767556 
H       0.72528382      -0.63073262       6.82025584 
H      -1.54557700      -0.69773632       7.82216668 
H      -3.56519229      -0.50608987       6.39784244 
H      -3.35180313      -0.24211386       3.92991099 
N      -0.26417501       0.16156293      -2.28375142 
C       0.23306416       1.17187314      -3.06830554 
C       0.14189408       1.14709493      -4.43799903 
C      -0.48284044       0.05022290      -5.08841301 
C      -0.60853047      -0.05829829      -6.49750252 
C      -1.22925542      -1.16126919      -7.04956150 
C      -1.75004645      -2.19617278      -6.22914929 
C      -1.64463702      -2.11881425      -4.85673362 
C      -1.00848122      -0.99522003      -4.26328432 
C      -0.86505799      -0.87599255      -2.86181133 
H       0.70097463       1.99751018      -2.54715069 
H       0.54994432       1.96687791      -5.01985296 
H      -0.21079509       0.73174149      -7.12701253 
H      -1.32288358      -1.24342942      -8.12807288 
H      -2.23200006      -3.05148287      -6.69166336 
H      -2.03714755      -2.90370237      -4.21721047 
H      -1.24686437      -1.65130733      -2.20543146 
