46
Properties=species:S:1:pos:R:3 pbc="F F F"
Mn       0.00000000       0.00000000       0.00000000 
O       1.67168800       3.49032100       0.68725700 
C       1.37447900       2.35187900       0.36234400 
O       0.14812100       2.06695400       0.11549300 
C       2.36170300       1.19151200       0.58233800 
C       3.44210400       1.31389600       1.47128400 
C       4.13081900       0.15948900       1.86011100 
C       3.65913800      -1.08884900       1.44284200 
C       2.57773300      -1.12700800       0.55303700 
C       1.82818900      -2.31751900       0.23172700 
O       0.54459300      -2.06695400      -0.11549300 
O       2.19322300      -3.43968600       0.54411000 
N       2.10000000       0.00000000       0.00000000 
H       3.70076900       2.26735300       1.91375800 
H       4.94441700       0.22416700       2.57084200 
H       4.08454800      -1.99553400       1.85399700 
N      -2.10000000       0.00000000       0.00000000 
C      -2.82091500       0.07164500       1.16935200 
C      -4.21527900       0.07345500       1.17868500 
C      -4.91343500       0.00051700      -0.02101400 
C      -6.31644600       0.00017300      -0.04068800 
C      -6.99825500      -0.07457000      -1.25783000 
C      -6.28508300      -0.15046700      -2.45790700 
C      -4.88618000      -0.15222300      -2.44562000 
C      -4.19227800      -0.07624900      -1.22739300 
C      -2.78901900      -0.07634700      -1.18782200 
H      -2.34865600       0.12723100       2.12769100 
H      -4.74172200       0.13059500       2.12512800 
H      -6.88292200       0.05825400       0.88161800 
H      -8.08055400      -0.07354400      -1.27109600 
H      -6.81722900      -0.20772900      -3.39824300 
H      -4.34983500      -0.21175600      -3.38537200 
H      -2.27024300      -0.14049700      -2.12572700 
N       0.00000000       0.00000000       2.10000000 
C      -0.07586500       1.15462300       2.84980400 
C      -0.06320700       1.12691700       4.24369000 
C       0.02207300      -0.09023100       4.90218900 
C       0.08248900      -1.26470800       4.16008000 
C       0.06728000      -1.20219900       2.76236600 
H      -0.17131300       2.12338700       2.39821600 
H      -0.12591800       2.05030700       4.80600200 
H       0.02913800      -0.12194300       5.98401800 
H       0.13602700      -2.21953500       4.66534100 
H       0.09669600      -2.13215200       2.22474600 
O       0.00000000       0.00000000      -2.08000000 
H       0.00000000       0.00000000      -3.50051500 
