45
Properties=species:S:1:pos:R:3 pbc="F F F"
Mn      -0.01427675       0.23881164       0.22182856 
O       2.39043930       3.72133015       0.88300870 
C       1.85179502       2.59602575       0.74818509 
O       0.59067607       2.36289319       0.71049793 
C       2.73502079       1.37103333       0.62904652 
C       4.12590849       1.39095667       0.73702017 
C       4.82460424       0.18690749       0.61912630 
C       4.12353491      -1.00017948       0.39380835 
C       2.73332831      -0.94651195       0.29117511 
C       1.84847409      -2.14989498       0.04384103 
O       0.59381034      -1.89623769      -0.02838458 
O       2.37955424      -3.28168882      -0.06852525 
N       2.07692771       0.21954448       0.41305419 
H       4.63755794       2.32984997       0.91119134 
H       5.90608683       0.17344885       0.70168994 
H       4.63318208      -1.95115419       0.29660187 
N      -2.14061549       0.27250183       0.10151267 
C      -2.82966790       1.20417266       0.81549143 
C      -4.19495530       1.34294457       0.68377274 
C      -4.86859162       0.49072161      -0.21088683 
C      -6.26627254       0.53104152      -0.45667324 
C      -6.82316875      -0.34593107      -1.36140670 
C      -6.02037700      -1.29677245      -2.05284709 
C      -4.66336630      -1.36524491      -1.83668146 
C      -4.06228968      -0.46795756      -0.91199826 
N      -2.71431979      -0.54814654      -0.73816539 
H      -2.23334722       1.82122069       1.47686331 
H      -4.72939096       2.09514552       1.25375936 
H      -6.87385564       1.25803171       0.07233569 
H      -7.89035929      -0.31606223      -1.55589887 
H      -6.49108958      -1.97182967      -2.75986155 
H      -4.03492911      -2.08105110      -2.35569183 
N      -0.25485097      -0.19502876       2.25330054 
C       0.07681319       0.66928118       3.23645759 
C      -0.13573862       0.37052311       4.57859921 
C      -0.71711758      -0.85245917       4.91746823 
C      -1.06795546      -1.73942434       3.89715321 
C      -0.82279932      -1.37901256       2.57712417 
H       0.51466704       1.60849052       2.92343702 
H       0.15032552       1.09131164       5.33574893 
H      -0.89667509      -1.10870333       5.95629615 
H      -1.52651861      -2.69779966       4.11154324 
H      -1.07370365      -2.03361301       1.75122380 
O       0.04399251       0.56211229      -1.58518307 
H       0.96613359       0.59744410      -1.89436729 
