57
Properties=species:S:1:pos:R:3 pbc="F F F"
Mn      -0.03815682       0.08833050      -0.20228854 
O       2.44265418      -3.23998711      -0.44761614 
C       1.88385320      -2.12604002      -0.37746163 
O       0.61752088      -1.92783068      -0.21767727 
C       2.70677543      -0.86154716      -0.46955419 
C       4.08929872      -0.82710876      -0.61894596 
C       4.71870611       0.41977870      -0.66664316 
C       3.96370569       1.58716279      -0.55299052 
C       2.57612542       1.48919857      -0.40100908 
C       1.64664027       2.62522617      -0.24239576 
C       2.03194730       3.96656392      -0.20574673 
C       1.04614809       4.94377295      -0.05254741 
C      -0.29100356       4.56117869       0.05469756 
C      -0.60201920       3.20238805       0.00938473 
N       0.34330164       2.26018306      -0.12945174 
N       1.98389446       0.27149948      -0.37580582 
H       4.64616318      -1.75332013      -0.69269742 
H       5.79466104       0.48435216      -0.78583206 
H       4.44822987       2.55499148      -0.58030105 
H       3.07366756       4.24953311      -0.29362784 
H       1.32410714       5.99160412      -0.01968676 
H      -1.08203561       5.29244082       0.17195194 
H      -1.62362912       2.84620353       0.08575064 
O      -1.83737129       0.05555065      -0.01853953 
H      -2.00789144      -0.17570461       0.92613642 
N       0.06413787      -0.05812759       2.03998498 
C       1.19547902       0.06966460       2.78246082 
C       1.20199530      -0.15260707       4.14505147 
C       0.00019255      -0.53071346       4.76991397 
C      -0.13568676      -0.80223818       6.15725379 
C      -1.36421802      -1.16926251       6.66018478 
C      -2.50261880      -1.27934112       5.81192551 
C      -2.40783411      -1.02083446       4.46402797 
C      -1.15019330      -0.64207101       3.92006404 
N      -1.07906087      -0.39848868       2.58400982 
H       2.08583036       0.35863009       2.23961807 
H       2.11844033      -0.04023602       4.71426511 
H       0.73516343      -0.71756350       6.79905703 
H      -1.47373893      -1.38038626       7.71895853 
H      -3.45491385      -1.57262503       6.24116479 
H      -3.26383664      -1.10076061       3.80251150 
N      -0.28250463       0.08688551      -2.39921804 
C       0.10321666       1.09993382      -3.22258569 
C      -0.09094067       1.04612241      -4.58701630 
C      -0.70654900      -0.09660420      -5.12951019 
C      -0.96960012      -0.29117720      -6.51145050 
C      -1.57794406      -1.45399032      -6.93042422 
C      -1.94842250      -2.46568541      -5.99975840 
C      -1.70962041      -2.30812341      -4.65408525 
C      -1.08293182      -1.11695928      -4.19434350 
N      -0.86263161      -0.99546544      -2.85613855 
H       0.56938213       1.94815613      -2.73802719 
H       0.22505225       1.86825705      -5.22015927 
H      -0.68505970       0.48276356      -7.21688714 
H      -1.78076490      -1.60839481      -7.98530686 
H      -2.42487106      -3.37013917      -6.36345098 
H      -1.98468224      -3.06790472      -3.93028378 
