64
Properties=species:S:1:pos:R:3 pbc="F F F"
Mn      -0.26851114      -0.32565764      -0.77857850 
O       0.24818012       3.70328621      -1.39575892 
C       0.59696259       2.51819869      -1.20265815 
O      -0.28355357       1.61168691      -0.85461012 
C       2.02904344       2.12383722      -1.31893270 
C       3.03201698       3.05089749      -1.63307519 
C       4.38810343       2.68299681      -1.67868963 
C       4.81159072       1.37914362      -1.40191931 
C       3.81568988       0.45486371      -1.08920751 
N       3.84369087      -0.89372848      -0.76317532 
C       2.56609946      -1.32468885      -0.55774818 
C       2.16485828      -2.66249092      -0.18827904 
C       3.12320821      -3.63345977       0.18003227 
C       2.74354725      -4.91573221       0.54833315 
C       1.37984789      -5.25207846       0.55718617 
C       0.41711654      -4.31597015       0.20123932 
C       0.78033803      -3.00711720      -0.18500536 
O      -0.20749799      -2.18616524      -0.55791236 
N       1.71464206      -0.30356614      -0.73633661 
C       2.45404487       0.81262794      -1.06080705 
H       2.74844018       4.07758410      -1.83789762 
H       5.12891555       3.43484809      -1.92922995 
H       5.85966891       1.10259201      -1.42986053 
H       4.67448064      -1.47275196      -0.71373981 
H       4.17697386      -3.37134978       0.18815534 
H       3.49423092      -5.64530217       0.83219039 
H       1.06826576      -6.25108791       0.84751866 
H      -0.63795822      -4.57093979       0.20283079 
N      -2.37254778      -0.33188412      -0.34718999 
C      -3.14872561      -1.36604349      -0.80311390 
C      -4.49541787      -1.44328244      -0.54421392 
C      -5.12869846      -0.42572963       0.21834811 
C      -6.51230835      -0.42755784       0.53455854 
C      -7.04923899       0.60109443       1.28309797 
C      -6.23810728       1.66991864       1.74660767 
C      -4.89073266       1.70010882       1.45535440 
C      -4.31302743       0.65376079       0.68685582 
C      -2.93433812       0.63605567       0.36758431 
H      -2.63104783      -2.12098891      -1.38250292 
H      -5.07268783      -2.28023396      -0.92326639 
H      -7.13478590      -1.24399173       0.18130642 
H      -8.10790197       0.59689816       1.52400768 
H      -6.68717070       2.46481528       2.33344438 
H      -4.25872339       2.51171466       1.80357745 
H      -2.28440522       1.43640635       0.70768758 
N      -0.13096551      -0.10421395       1.67880645 
C      -0.78035695      -0.98754848       2.49924328 
C      -0.67365440      -0.95831068       3.87040623 
C       0.13927045       0.02805324       4.49063510 
C       0.30981308       0.13727973       5.89642649 
C       1.11885763       1.12667101       6.41869620 
C       1.78932996       2.04579853       5.56952126 
C       1.64283968       1.96466614       4.20046711 
C       0.81689178       0.95570823       3.63647928 
C       0.63301496       0.82500954       2.23551668 
H      -1.39554475      -1.72801207       1.99781041 
H      -1.20753465      -1.68341849       4.47678578 
H      -0.20269861      -0.56460663       6.54767001 
H       1.24754642       1.20753843       7.49384708 
H       2.41950383       2.81402346       6.00658324 
H       2.15070976       2.66192040       3.54007265 
H       1.13843549       1.51378752       1.56231754 
O      -0.57002995      -0.50504053      -2.81890419 
H      -0.72158335       0.38951183      -3.16476407 
