47
Properties=species:S:1:pos:R:3 pbc="F F F"
Mn      -0.11138744       0.02928570       0.13053739 
O       2.22503854       3.49361130       0.78799244 
C       1.72779921       2.36206940       0.57817808 
O       0.49634772       2.12764002       0.29851027 
C       2.62169261       1.14238656       0.64668697 
C       3.98894161       1.20988059       0.90692938 
C       4.71802245       0.01925423       0.93225308 
C       4.07234225      -1.19148309       0.68847008 
C       2.69504592      -1.18948622       0.43039917 
C       1.89807606      -2.40421681       0.14286151 
C       2.45879221      -3.67100861      -0.04788681 
C       1.61457381      -4.74386513      -0.33666827 
C       0.23935916      -4.52766322      -0.42887586 
C      -0.24500180      -3.23576655      -0.22537523 
N       0.56330114      -2.20149302       0.05711582 
N       2.00411522      -0.03140977       0.42447526 
H       4.45729356       2.17045092       1.08330235 
H       5.78287302       0.03277169       1.13766987 
H       4.62849863      -2.12046172       0.70512895 
H       3.52986200      -3.81978697       0.01487122 
H       2.02989746      -5.73376059      -0.49254071 
H      -0.44782696      -5.33452687      -0.65560865 
H      -1.30530212      -3.01441253      -0.29136199 
N      -2.21694271       0.06370142       0.06804497 
C      -2.97359689      -0.81668385       0.75682027 
C      -4.36272678      -0.74807152       0.74852893 
C      -4.98431105       0.27091658       0.02278247 
C      -4.19480493       1.18539872      -0.67817531 
C      -2.81098389       1.04798643      -0.63850712 
H      -2.44234256      -1.57818662       1.31698595 
H      -4.93794776      -1.47768390       1.30656167 
H      -6.06607709       0.35136837       0.00460315 
H      -4.63590995       1.99310013      -1.25068358 
H      -2.15167657       1.72244542      -1.17306382 
N      -0.31648784       0.08420537       2.20623832 
C       0.08428469      -0.92930368       3.00421939 
C      -0.10368220      -0.89998112       4.38221072 
C      -0.72814375       0.20811129       4.95698617 
C      -1.14511265       1.25262210       4.12883291 
C      -0.92613680       1.15673460       2.75930014 
H       0.55923996      -1.77290647       2.51980313 
H       0.23530011      -1.73605193       4.98274320 
H      -0.88863362       0.25613610       6.02889490 
H      -1.63715358       2.13151991       4.52884513 
H      -1.23387557       1.93994534       2.07693686 
O       0.01719817       0.00881313      -1.69588119 
H      -0.13634497      -0.89313518      -2.02846658 
