59
Properties=species:S:1:pos:R:3 pbc="F F F"
Mn      -0.07316195      -0.21491480      -0.06313224 
C       0.33864478      -4.56799602      -0.49085518 
C       1.71787861      -4.71613617      -0.63657877 
C       2.54301626      -3.59115003      -0.57276371 
C       1.96038317      -2.34022697      -0.37011831 
C       2.70477359      -1.07233737      -0.26540423 
C       4.09364012      -0.93349386      -0.31391370 
C       4.64547922       0.33970412      -0.16715618 
C       3.82153586       1.44967239       0.02141967 
C       2.43820265       1.25942403       0.05197810 
C       1.42502763       2.31796164       0.21180200 
C       1.71022145       3.66442092       0.43835474 
C       0.65011967       4.56402035       0.56902563 
C      -0.66195596       4.10141797       0.46810223 
C      -0.87797848       2.74265760       0.24239174 
N       0.14053170       1.87700588       0.11629341 
N       1.91812882       0.01666937      -0.08981901 
N       0.61156428      -2.20673419      -0.23564049 
C      -0.18007469      -3.28960739      -0.29112902 
H      -0.33069862      -5.41909871      -0.53049904 
H       2.15306655      -5.69653837      -0.79658797 
H       3.61637287      -3.69056225      -0.67857537 
H       4.73102915      -1.79623138      -0.45869530 
H       5.72168885       0.46673085      -0.20015706 
H       4.24465552       2.43981005       0.13633800 
H       2.73545832       4.00584910       0.51350253 
H       0.85208914       5.61430577       0.74827238 
H      -1.50811552       4.77121584       0.56442777 
H      -1.87509779       2.32589272       0.15821581 
H      -1.24255934      -3.11125851      -0.17052357 
O      -1.85472960      -0.53159323       0.03259370 
H      -2.33485322      -0.09584810      -0.69439423 
N       0.06344268      -0.27134387       2.30114253 
C       0.90639194      -1.06519944       3.01786244 
C       0.91179986      -1.08357093       4.39708098 
C       0.00771949      -0.24715936       5.07733160 
C      -0.10408039      -0.16129219       6.49080328 
C      -1.02843673       0.69375282       7.04937973 
C      -1.87453321       1.49426492       6.23119327 
C      -1.79100188       1.43461442       4.85888446 
C      -0.84550958       0.55984331       4.25570519 
N      -0.79295612       0.52544823       2.89342656 
H       1.57480727      -1.68719250       2.43581732 
H       1.59532791      -1.72923925       4.93827237 
H       0.54317817      -0.77490679       7.10934007 
H      -1.11873265       0.76252502       8.12872966 
H      -2.59258353       2.15744236       6.70242647 
H      -2.42888835       2.03675934       4.22027481 
N      -0.10008397      -0.09293164      -2.39395461 
C      -0.86409130      -1.00645318      -3.03067791 
C      -0.96979379      -1.06363912      -4.41790959 
C      -0.25903405      -0.13951146      -5.18581207 
C       0.53052593       0.80898130      -4.53294187 
C       0.58270108       0.79913058      -3.14108796 
H      -1.40425279      -1.70575463      -2.40100637 
H      -1.59839187      -1.81779213      -4.87797237 
H      -0.31960617      -0.15692694      -6.26912460 
H       1.09953833       1.54844224      -5.08518095 
H       1.18623067       1.52573965      -2.60847579 
