61
Properties=species:S:1:pos:R:3 pbc="F F F"
Mn      -0.24034654       0.19647110       0.09184729 
O       1.92889206      -3.40357185       0.44194653 
C       1.47061525      -2.24287781       0.32561593 
O       0.23972016      -1.93693676       0.13144431 
C       2.41522917      -1.06474702       0.41338088 
C       3.78255063      -1.20741265       0.63099771 
C       4.56822777      -0.05638275       0.70536455 
C       3.97261644       1.19254074       0.54715447 
C       2.59247488       1.27285564       0.31927049 
C       1.86625010       2.54805471       0.12316213 
C       2.52059943       3.77395002      -0.03602679 
C       1.75447832       4.91915086      -0.24857335 
C       0.36779766       4.80884920      -0.30078463 
C      -0.22238664       3.55358170      -0.10840263 
C      -1.74031024       3.44262114      -0.08965342 
O      -2.25741081       2.72949172       0.82903090 
O      -2.36332203       4.09971156      -0.97120494 
N       0.51497948       2.44416623       0.09647417 
N       1.84169968       0.14800245       0.26586690 
H       4.20483952      -2.19843911       0.74263856 
H       5.63526089      -0.12854300       0.88534620 
H       4.57193884       2.09175016       0.60988152 
H       3.60113494       3.83750158      -0.01076101 
H       2.23688267       5.88204079      -0.37761003 
H      -0.26212105       5.67376394      -0.47177656 
O      -2.05294650       0.14667762      -0.01773154 
H      -2.34395778       1.03326906       0.30989666 
N      -0.33803758       0.15511858       2.20752794 
C       0.13875941       1.15300652       3.01971286 
C       0.11743755       1.05486248       4.38920865 
C      -0.40651531      -0.10907059       5.01040024 
C      -0.45010646      -0.29744785       6.41610174 
C      -0.97245541      -1.46443187       6.93747547 
C      -1.47361612      -2.48620775       6.08869941 
C      -1.44871889      -2.33077969       4.71916979 
C      -0.91319240      -1.14046316       4.15679033 
C      -0.85328800      -0.94132236       2.75836582 
H       0.53100335       2.02789972       2.51827892 
H       0.50519377       1.86903099       4.99239904 
H      -0.06725480       0.48253704       7.06700423 
H      -1.00213476      -1.60874436       8.01308205 
H      -1.87676935      -3.39342842       6.52712778 
H      -1.82760469      -3.10472001       4.05843841 
H      -1.22920965      -1.70061268       2.08128837 
N      -0.06686684       0.06131975      -2.03273868 
C       0.74441565       0.84077364      -2.81837924 
C       0.85313082       0.65444319      -4.17440569 
C       0.11454285      -0.37682905      -4.81090368 
C       0.17309214      -0.63993687      -6.20394143 
C      -0.57817361      -1.66593531      -6.74166075 
C      -1.41523857      -2.46829742      -5.92222690 
C      -1.49512145      -2.23554595      -4.56578011 
C      -0.73134705      -1.18602380      -3.98671669 
C      -0.77777723      -0.90954711      -2.60102377 
H       1.29798031       1.62282252      -2.31607714 
H       1.50514655       1.29909832      -4.75433424 
H       0.81220755      -0.02730327      -6.83228116 
H      -0.53171333      -1.86673252      -7.80759450 
H      -1.99362009      -3.26825230      -6.37301299 
H      -2.13141432      -2.84126789      -3.92750189 
H      -1.41295631      -1.49968680      -1.94912648 
