63
Properties=species:S:1:pos:R:3 pbc="F F F"
Ru       0.00000000       0.00000000       0.00000000 
O       0.46437500       3.61477900      -1.50158500 
C       0.88754100       2.59015000      -0.98977300 
O       0.23209200       2.05903800      -0.03357100 
C       2.19007900       1.99631400      -1.43508300 
C       2.97561800       2.66025200      -2.40753600 
C       4.21262000       2.12871000      -2.82249200 
C       4.68565900       0.92779000      -2.27646600 
C       3.88980500       0.28838700      -1.33265300 
N       4.14615100      -0.88611000      -0.65917000 
C       3.01543500      -1.13166800       0.22077600 
C       2.47001900      -2.56148300      -0.00538700 
C       3.42784700      -3.60324100      -0.08129200 
C       3.05565700      -4.92986000      -0.30502400 
C       1.71399400      -5.26389500      -0.43891000 
C       0.74243200      -4.27413100      -0.33161300 
C       1.10208800      -2.93866100      -0.10966700 
O       0.10592600      -2.05903800       0.03357100 
N       2.10000000       0.00000000       0.00000000 
C       2.69462700       0.77078500      -0.91951000 
H       2.64144400       3.59435800      -2.84108600 
H       4.80416100       2.65349300      -3.56138600 
H       5.63791400       0.51279400      -2.58002800 
H       5.01836900      -1.42762900      -0.73652200 
H       4.48425900      -3.40241900       0.02138400 
H       3.81312600      -5.69960900      -0.37444100 
H       1.42545500      -6.29279300      -0.61134500 
H      -0.30240700      -4.54701200      -0.41296200 
O      -2.08000000       0.00000000       0.00000000 
H      -3.50051500       0.00000000       0.00000000 
N       0.00000000       0.00000000       2.10000000 
C       1.13627900       0.22390900       2.82808300 
C       1.10238200       0.21682700       4.21649400 
C      -0.10788500      -0.00414000       4.86334500 
C      -0.18869700      -0.01036500       6.26181100 
C      -1.42279600      -0.21384100       6.88486800 
C      -2.57374700      -0.40704400       6.11526400 
C      -2.49740100      -0.40868000       4.71611500 
C      -1.26369400      -0.20720800       4.08372100 
N      -1.16736700      -0.20838900       2.72444500 
H       2.08037000       0.42123400       2.35488600 
H       2.01388600       0.38738500       4.77673100 
H       0.69492100       0.14392900       6.87071500 
H      -1.48337000      -0.21482800       7.96639200 
H      -3.52611500      -0.55757100       6.60454000 
H      -3.39348000      -0.55956400       4.12935300 
N       0.00000000       0.00000000      -2.10000000 
C       1.00800000      -0.59201000      -2.82051700 
C       1.02785200      -0.57671400      -4.21003900 
C      -0.04133100      -0.02326800      -4.90256900 
C      -0.05732400      -0.02106900      -6.30424700 
C      -1.16325000       0.48519200      -6.98734900 
C      -2.25656900       0.98954600      -6.27600100 
C      -2.23810100       1.01498400      -4.87535300 
C      -1.12602600       0.51418900      -4.17877800 
C      -1.06936900       0.53540400      -2.77163400 
H       1.82617700      -1.08320900      -2.33085500 
H       1.86621500      -1.01914500      -4.73591400 
H       0.77916200      -0.41905100      -6.86790200 
H      -1.17715600       0.47694900      -8.06967000 
H      -3.11797000       1.36483000      -6.81256300 
H      -3.09225100       1.40989200      -4.34201200 
H      -1.88988400       0.96882000      -2.21993700 
