50
Properties=species:S:1:pos:R:3 pbc="F F F"
Ru      -0.02659010       0.05456120      -0.14778986 
C      -0.09007481       4.42868822       0.21914515 
C       1.24864301       4.74474998      -0.01478498 
C       2.16561708       3.71946402      -0.24871484 
C       1.72466663       2.39586085      -0.25033719 
C       2.60337591       1.23123684      -0.44941237 
C       3.98385703       1.24940174      -0.66565302 
C       4.65963238       0.03317654      -0.78459529 
C       3.97192165      -1.17689475      -0.67115990 
C       2.59167889      -1.14617213      -0.45498384 
C       1.70165440      -2.30311605      -0.26131290 
C       2.12961465      -3.63094669      -0.26675021 
C       1.20282318      -4.64838633      -0.03722224 
C      -0.13251837      -4.32042375       0.19958316 
C      -0.50586094      -2.97961673       0.19550941 
N       0.38408955      -1.99599197      -0.03535627 
N       1.95331336       0.04551014      -0.36907585 
N       0.40403387       2.10048340      -0.02669172 
C      -0.47646120       3.09162644       0.20819578 
H      -0.83074480       5.19671652       0.40766424 
H       1.58042444       5.77707016      -0.01177673 
H       3.21069979       3.94431054      -0.42363944 
H       4.52017006       2.18748087      -0.73614663 
H       5.73022661       0.02829669      -0.95444001 
H       4.49906000      -2.11984773      -0.74581373 
H       3.17228049      -3.86513942      -0.44379776 
H       1.52449199      -5.68390390      -0.03974630 
H      -0.88046414      -5.08211142       0.38507063 
H      -1.52865483      -2.66979866       0.37338884 
H      -1.50238147       2.79091355       0.38362949 
C      -4.38369485       0.07364667      -0.47618869 
C      -3.03456032       0.06871491      -0.79904447 
N      -2.09694813       0.06307963       0.17075354 
C      -2.51694618       0.06239111       1.46016450 
C      -1.43183541       0.05568690       2.46392642 
N      -0.17276656       0.05083288       1.95461945 
C       0.86117539       0.04424557       2.82124268 
C       0.63659003       0.04264063       4.19030058 
C      -0.69077849       0.04814059       4.61859106 
N      -1.72619028       0.05457723       3.76335216 
N      -3.79150893       0.06695354       1.84987593 
C      -4.71842814       0.07256100       0.87850687 
H      -5.14174713       0.07816690      -1.24927158 
H      -2.66903024       0.06909223      -1.81947661 
H       1.85611024       0.04039690       2.39196427 
H       1.46161443       0.03737509       4.89120917 
H      -0.93963490       0.04725516       5.67426922 
H      -5.75419475       0.07624593       1.20053406 
O      -0.25865490       0.06082850      -2.08939306 
H       0.59046285       0.05933944      -2.56805512 
