64
Properties=species:S:1:pos:R:3 pbc="F F F"
Ru      -0.24435342      -0.32019764      -0.35203619 
O       0.41225992       3.81483521      -0.99091386 
C       0.66800522       2.59023347      -0.87286250 
O      -0.27014111       1.75748060      -0.51135821 
C       2.06350298       2.11285167      -1.13513211 
C       3.06288425       3.02121269      -1.51584303 
C       4.38839005       2.61856782      -1.75337438 
C       4.79072171       1.28620316      -1.62359194 
C       3.80528781       0.37495133      -1.24590185 
N       3.82435001      -0.99308570      -1.03120813 
C       2.56239155      -1.40327193      -0.68304091 
C       2.16852861      -2.76449450      -0.37934551 
C       3.15016410      -3.78481607      -0.39055864 
C       2.84376537      -5.10565612      -0.10233492 
C       1.51801375      -5.44668689       0.21315635 
C       0.53360038      -4.47046901       0.23536590 
C       0.81505162      -3.11301909      -0.05701202 
O      -0.23236148      -2.28469076       0.00516389 
N       1.74449719      -0.34325403      -0.65770478 
C       2.47286579       0.77246220      -1.00493650 
H       2.79597216       4.06634473      -1.62715789 
H       5.12001886       3.36449105      -2.04598870 
H       5.81398920       0.97809445      -1.80833469 
H       4.63631525      -1.58895657      -1.13524917 
H       4.17907138      -3.53184426      -0.62629087 
H       3.62228922      -5.86082337      -0.11968428 
H       1.25748841      -6.47577987       0.44257436 
H      -0.49439260      -4.72216210       0.47866714 
N      -2.34680025      -0.31446259      -0.10927164 
C      -3.08475162      -1.33517429      -0.65946539 
C      -4.44872303      -1.41762019      -0.52426794 
C      -5.15111205      -0.42300732       0.20673302 
C      -6.55751801      -0.43341822       0.39802623 
C      -7.16210217       0.57276847       1.12505749 
C      -6.39629013       1.62695000       1.68853308 
C      -5.02832873       1.66495960       1.51902986 
C      -4.38059398       0.64113339       0.77576461 
C      -2.97891801       0.63392571       0.57988919 
H      -2.51632541      -2.07483048      -1.20938900 
H      -4.98623687      -2.24403386      -0.97790273 
H      -7.14385319      -1.23936204      -0.03302018 
H      -8.23802083       0.56223022       1.27032068 
H      -6.89654652       2.40548603       2.25570302 
H      -4.43229758       2.46654642       1.94534586 
H      -2.36489861       1.42581440       0.99734301 
N      -0.06213181      -0.05656644       1.76181352 
C      -0.82014256      -0.85295275       2.58958322 
C      -0.80581229      -0.72361514       3.95554889 
C       0.00940204       0.26511453       4.56753507 
C       0.07677026       0.47174587       5.96949203 
C       0.89959602       1.45552236       6.48173883 
C       1.68637300       2.26906062       5.62512018 
C       1.64160767       2.09208193       4.25819001 
C       0.80092431       1.08842173       3.70519886 
C       0.71916253       0.87279193       2.30892430 
H      -1.42561100      -1.59876766       2.09043175 
H      -1.42193296      -1.37724156       4.56425086 
H      -0.52385916      -0.15053821       6.62592208 
H       0.94920321       1.61302518       7.55483379 
H       2.32519678       3.03416468       6.05466538 
H       2.23781067       2.70859574       3.59189135 
H       1.30945630       1.48254284       1.63395047 
O      -0.51573258      -0.56859733      -2.31623184 
H       0.35127541      -0.50086000      -2.75253042 
