52
Properties=species:S:1:pos:R:3 pbc="F F F"
Ru      -0.09249764       0.26417522      -0.37865800 
O       0.54545264      -3.81493788      -1.31781736 
C       0.81108788      -2.60716540      -1.09421360 
O      -0.12854751      -1.79638665      -0.68644989 
C       2.21718231      -2.12695380      -1.28579531 
C       3.22112808      -3.01770689      -1.69513693 
C       4.55526949      -2.61153939      -1.87048650 
C       4.96191798      -1.29244538      -1.64921507 
C       3.97163744      -0.39839679      -1.24479652 
N       3.99117868       0.95534607      -0.95290197 
C       2.72221003       1.35358586      -0.61733522 
C       2.32440424       2.70141685      -0.26161211 
C       3.30408608       3.72373647      -0.23465639 
C       2.99495839       5.03263189       0.10090261 
C       1.66804602       5.35971943       0.42611397 
C       0.68499582       4.38227577       0.40795840 
C       0.96839730       3.03717020       0.06428231 
O      -0.08014839       2.20806665       0.08556265 
N       1.90033119       0.29760880      -0.66998891 
C       2.63127764      -0.80041124      -1.06287278 
H       2.95073945      -4.05183179      -1.87821422 
H       5.29036194      -3.34390251      -2.18765170 
H       5.99164236      -0.98176322      -1.78787665 
H       4.81044680       1.54859125      -0.99164596 
H       4.33304355       3.48264251      -0.48386123 
H       3.77182060       5.78962068       0.11034411 
H       1.40561093       6.37930480       0.69261495 
H      -0.34426286       4.62402522       0.65590619 
N      -2.19353568       0.25090360      -0.13824808 
C      -2.82607382      -0.75824868       0.50286955 
C      -4.20579058      -0.77739462       0.68160253 
C      -4.96956817       0.28051607       0.18332193 
C      -4.31768812       1.32267472      -0.47912726 
C      -2.93369284       1.27440385      -0.61996001 
H      -2.19425011      -1.55976364       0.86827388 
H      -4.66432945      -1.61039626       1.20258239 
H      -6.04739463       0.29196710       0.30781998 
H      -4.86563376       2.16569248      -0.88508226 
H      -2.38431083       2.06089282      -1.12380745 
N       0.10715360      -0.12042844       1.71745275 
C      -0.60999942       0.61310450       2.59955784 
C      -0.53704409       0.40536150       3.97291375 
C       0.29892337      -0.59961721       4.46408549 
C       1.03806669      -1.35878476       3.55500440 
C       0.91905814      -1.09023237       2.19486476 
H      -1.24236961       1.38332907       2.17427324 
H      -1.13124444       1.02283602       4.63701395 
H       0.37306338      -0.78598793       5.53035144 
H       1.70348208      -2.14839942       3.88513918 
H       1.47959540      -1.65562803       1.46081612 
O      -0.36189071       0.62664676      -2.31794702 
H       0.50509216       0.58899012      -2.75786593 
