59
Properties=species:S:1:pos:R:3 pbc="F F F"
Ru      -0.19884447       0.03224084      -0.11218182 
C      -0.53228191      -4.32446928       0.38839075 
C       0.75657826      -4.73689308       0.05046091 
C       1.71497112      -3.78017048      -0.28488938 
C       1.36360896      -2.42995602      -0.28732399 
C       2.30553564      -1.33542009      -0.58428379 
C       3.65014934      -1.45937358      -0.94859667 
C       4.39600861      -0.29787578      -1.15533038 
C       3.81112400       0.96173266      -1.00312763 
C       2.46185817       1.03627350      -0.64849765 
C       1.66793785       2.26397255      -0.45806579 
C       2.20129575       3.54972148      -0.54956115 
C       1.37298221       4.65278307      -0.33972990 
C       0.02649512       4.44875551      -0.04102371 
C      -0.45225427       3.14352760       0.03746101 
N       0.34038356       2.07520103      -0.16662560 
N       1.75882266      -0.10334989      -0.44822476 
N       0.08726686      -2.03822482       0.03598604 
C      -0.82913504      -2.96434935       0.37167375 
H      -1.30312440      -5.03543679       0.66085979 
H       1.01982544      -5.78881115       0.05333287 
H       2.72577176      -4.07774610      -0.53550824 
H       4.10404106      -2.43513960      -1.06982818 
H       5.43972692      -0.37390392      -1.43833707 
H       4.39240734       1.86113140      -1.16467537 
H       3.25110189       3.68657881      -0.77828727 
H       1.77925084       5.65589724      -0.40680360 
H      -0.65085076       5.27695769       0.12941175 
H      -1.49022515       2.93568622       0.26749117 
H      -1.81079066      -2.58509990       0.63076728 
N      -2.30463008       0.14948168       0.07603126 
C      -3.01473512       0.89285200      -0.82487694 
C      -4.38837508       0.97957940      -0.77532477 
C      -5.07138269       0.27856289       0.23645127 
C      -6.48014111       0.28126611       0.40911690 
C      -7.04142636      -0.44714656       1.43551913 
C      -6.22920807      -1.20389534       2.32572660 
C      -4.85997895      -1.22799487       2.18594980 
C      -4.25574863      -0.48305172       1.13605634 
N      -2.89857611      -0.52891707       1.03011322 
H      -2.42073351       1.39732758      -1.57577631 
H      -4.92445673       1.57830122      -1.50379132 
H      -7.09413868       0.85979670      -0.27362681 
H      -8.11799745      -0.44867037       1.57221874 
H      -6.70169929      -1.76732721       3.12368205 
H      -4.22584360      -1.79900386       2.85590493 
N       0.02450390       0.18840077       2.01711300 
C       0.98600532      -0.49766832       2.67664929 
C       1.15814675      -0.40360825       4.05333661 
C       0.31926940       0.43743528       4.78585978 
C      -0.66671980       1.15575637       4.10658073 
C      -0.78689140       1.00399680       2.72987977 
H       1.62919481      -1.13414365       2.08220534 
H       1.94183727      -0.98060404       4.53050272 
H       0.43225083       0.53318250       5.86050227 
H      -1.34130908       1.82543001       4.62745536 
H      -1.54315605       1.54160056       2.17235959 
O      -0.51938845      -0.07344073      -2.03411397 
H       0.30598323      -0.25206967      -2.52112097 
