66
Properties=species:S:1:pos:R:3 pbc="F F F"
Ru      -0.03418996      -0.12348419       0.11765561 
C      -0.16788568       4.28537627       0.50161018 
C       1.19198141       4.59082192       0.53069901 
C       2.12731876       3.55795003       0.45473455 
C       1.68551209       2.23873375       0.35010587 
C       2.59307093       1.07802602       0.25726767 
C       3.98953229       1.11064171       0.24654605 
C       4.68930680      -0.09485325       0.14661005 
C       4.00771708      -1.30899878       0.06231608 
C       2.60902254      -1.29398542       0.07763082 
C       1.71306401      -2.46166639       0.01415682 
C       2.16390785      -3.77842287      -0.08701954 
C       1.23731651      -4.81927810      -0.13340085 
C      -0.12434237      -4.52232831      -0.07770839 
C      -0.51898216      -3.19150261       0.02459054 
N       0.36877959      -2.18008863       0.07290351 
N       1.95236237      -0.11343760       0.17649791 
N       0.34457951       1.95032868       0.32602999 
C      -0.55184148       2.95045235       0.40070101 
H      -0.92646566       5.05695201       0.55587152 
H       1.52640797       5.61914616       0.61189653 
H       3.18723218       3.77914233       0.47689990 
H       4.52450427       2.04965959       0.31125544 
H       5.77321726      -0.08560039       0.13486899 
H       4.55330948      -2.24121700      -0.01327044 
H       3.22598812      -3.98606253      -0.13099380 
H       1.57769817      -5.84556695      -0.21423510 
H      -0.87789940      -5.29985523      -0.11589593 
H      -1.56503760      -2.91545212       0.06140983 
H      -1.59590431       2.66269247       0.37424033 
N      -2.17521348      -0.11187140      -0.04077922 
C      -2.97514340      -0.85202295       0.80025087 
C      -4.34344293      -0.87310315       0.69421815 
C      -4.98999096      -0.10928895      -0.31247828 
C      -6.39699891      -0.07144591      -0.48941031 
C      -6.94269525       0.69889411      -1.49722415 
C      -6.11585411       1.45884793      -2.36554032 
C      -4.74487780       1.44218584      -2.21782493 
C      -4.15785729       0.65798264      -1.18862051 
C      -2.75682961       0.61128248      -0.99740706 
H      -2.45888728      -1.42688584       1.55923783 
H      -4.92566791      -1.47610711       1.38307214 
H      -7.02969363      -0.65295357       0.17409884 
H      -8.01955256       0.72688279      -1.63227635 
H      -6.57199329       2.05480879      -3.14953941 
H      -4.10186556       2.01882105      -2.87602262 
H      -2.09834151       1.17768678      -1.64783058 
N      -0.19379739      -0.15227935       2.25945381 
C      -1.11900910       0.65326349       2.88593761 
C      -1.25687442       0.69934335       4.24981862 
C      -0.43467318      -0.11096746       5.07650625 
C      -0.51702241      -0.13024094       6.49163378 
C       0.32376334      -0.95136240       7.21754078 
C       1.27549982      -1.78179547       6.56993304 
C       1.37965869      -1.78448145       5.19523483 
C       0.52569478      -0.94864025       4.42517463 
C       0.59786244      -0.91530696       3.01439469 
H      -1.74001618       1.25643521       2.23682481 
H      -1.99994386       1.35526618       4.69085225 
H      -1.24390600       0.50395870       6.98940830 
H       0.25981150      -0.96575216       8.30114123 
H       1.92250331      -2.41674162       7.16644622 
H       2.10267995      -2.41505979       4.68654074 
H       1.32716345      -1.53683665       2.50746262 
O      -0.00668689      -0.05200791      -1.83097382 
H       0.87692506      -0.26892397      -2.18043564 
