55
Properties=species:S:1:pos:R:3 pbc="F F F"
Ru      -0.24728346      -0.05229297       0.54383896 
O      -0.11031819      -2.06402225       0.48064609 
C       1.02124525      -2.80464677       0.42249536 
C       0.81209261      -4.18089542       0.17325230 
C       1.85939970      -5.09270113       0.11617090 
C       3.18118480      -4.66641275       0.31179117 
C       3.42592072      -3.32209257       0.55939759 
C       2.38383871      -2.37181152       0.61888931 
C       2.67176579      -0.97606290       0.88498657 
N       3.86140754      -0.32650163       1.18432930 
C       3.59543988       1.03976559       1.36566400 
C       4.30139755       2.21719783       1.67044122 
C       3.51949261       3.38278780       1.73601159 
C       2.11481027       3.45033551       1.52533849 
C       1.40567303       2.27446152       1.22407693 
O       0.08748309       2.07717053       1.00090302 
C       2.22364958       1.14237262       1.16389457 
N       1.70204711      -0.07823253       0.87371315 
H      -0.21298353      -4.50865667       0.02696482 
H       1.64500404      -6.13908082      -0.08059798 
H       4.00446273      -5.37172283       0.26954489 
H       4.44865393      -2.98771305       0.70940683 
H       4.76509818      -0.77581061       1.27063656 
H       5.37034471       2.24449196       1.84696841 
H       4.02863239       4.31405653       1.96989658 
H       1.60985757       4.40870909       1.60325347 
N      -2.30558825      -0.08892510       0.17119781 
C      -3.04531776      -1.14283580       0.63842139 
C      -4.39253688      -1.25822337       0.38883830 
C      -5.02495709      -0.25338939      -0.37179016 
C      -6.40306951      -0.24730951      -0.70981202 
C      -6.91767392       0.78881575      -1.45996289 
C      -6.08444699       1.85428451      -1.89841293 
C      -4.74303436       1.87720767      -1.58615317 
C      -4.18729048       0.81934071      -0.81629428 
N      -2.85357150       0.87624728      -0.53309735 
H      -2.48777446      -1.87707455       1.20591194 
H      -4.94971265      -2.10775852       0.76945792 
H      -7.03230965      -1.06447364      -0.37114243 
H      -7.97059208       0.79679332      -1.72286645 
H      -6.51627447       2.65668530      -2.48784481 
H      -4.09381910       2.68199735      -1.91511272 
N      -0.68558580      -0.21837100       2.62830102 
C      -1.58443938       0.62716124       3.18162077 
C      -1.90126311       0.59390481       4.53583322 
C      -1.27373724      -0.34543749       5.35681441 
C      -0.34682430      -1.21943061       4.78579745 
C      -0.07772869      -1.12682467       3.42335661 
H      -2.04568586       1.34045610       2.50897488 
H      -2.62898054       1.29455989       4.92946390 
H      -1.50124882      -0.39410718       6.41652112 
H       0.16949797      -1.96483616       5.38010859 
H       0.63598028      -1.78643957       2.94488594 
O       0.08272478       0.21939849      -1.39977244 
H       1.03097423       0.39678654      -1.52616769 
