60
Properties=species:S:1:pos:R:3 pbc="F F F"
Ru      -0.60957865      -0.42401210      -0.34616240 
O      -0.45987746      -2.40357544       0.07034076 
C       0.61354925      -3.20133819      -0.13124094 
C       0.39266341      -4.56875676       0.15634499 
C       1.38892139      -5.52912259       0.02136795 
C       2.67185486      -5.16400017      -0.41092472 
C       2.92856718      -3.82995113      -0.70064219 
C       1.93781528      -2.83362459      -0.57465059 
C       2.24762683      -1.44890348      -0.87270527 
N       3.42469806      -0.83459999      -1.27734125 
C       3.18756847       0.54198672      -1.42046031 
C       3.89541033       1.69958842      -1.79142217 
C       3.14774419       2.88893377      -1.77641621 
C       1.77294820       2.99823978      -1.42581805 
C       1.06331971       1.84327897      -1.05596494 
O      -0.22890218       1.68809455      -0.68369115 
C       1.84764987       0.68692992      -1.08005692 
N       1.31661153      -0.52057277      -0.75656276 
H      -0.60059141      -4.85002739       0.49414229 
H       1.16426775      -6.56581579       0.25476681 
H       3.45516567      -5.90693906      -0.51808083 
H       3.92109198      -3.53820373      -1.03336780 
H       4.30521007      -1.30987844      -1.43522442 
H       4.94188747       1.69549609      -2.07334078 
H       3.65976443       3.80552404      -2.05699107 
H       1.29235788       3.97178467      -1.45143566 
N      -2.66249410      -0.28224157       0.01961181 
C      -3.48068358      -1.28962886      -0.41635663 
C      -4.83803791      -1.27690645      -0.19343948 
C      -5.39422814      -0.18683733       0.50684010 
C      -6.77310584      -0.04472444       0.81125740 
C      -7.20837267       1.06339906       1.50650647 
C      -6.29275470       2.06858952       1.92275379 
C      -4.94871170       1.96044131       1.64196884 
C      -4.47376746       0.82658428       0.92774236 
N      -3.13514698       0.75460743       0.67502371 
H      -2.97852850      -2.09105124      -0.94285467 
H      -5.46033042      -2.09163275      -0.54838350 
H      -7.46570539      -0.81662436       0.49072039 
H      -8.26171700       1.17556502       1.74267428 
H      -6.66345976       2.93003296       2.46877010 
H      -4.23765787       2.71901524       1.95224802 
N      -0.25685237      -0.11383587       1.71778993 
C      -0.95460918      -0.85635085       2.63027544 
C      -0.78672690      -0.68900845       3.98572222 
C       0.13268238       0.27994304       4.43482326 
C       0.40193970       0.56624031       5.79845196 
C       1.32719761       1.53567514       6.12188351 
C       2.01906529       2.25377485       5.10756835 
C       1.78047277       1.99970375       3.77562284 
C       0.82857046       1.00650931       3.41538505 
N       0.62081874       0.78721425       2.08632949 
H      -1.63913134      -1.58104221       2.20929979 
H      -1.35572489      -1.29016031       4.68679545 
H      -0.12839559       0.01446384       6.56806953 
H       1.53561139       1.75898093       7.16329026 
H       2.74192029       3.01101143       5.39321809 
H       2.29756144       2.53862030       2.98866134 
O      -1.02220372      -0.68599536      -2.27928445 
H      -0.18441918      -0.70372321      -2.77389643 
