62
Properties=species:S:1:pos:R:3 pbc="F F F"
Ru      -0.02528828      -0.39938318       0.17129639 
O       0.57078643      -2.36804158       0.24289297 
C       1.79173887      -2.92238124       0.25336484 
C       1.83133371      -4.33948721       0.23714958 
C       3.02772918      -5.04407386       0.25034778 
C       4.25802774      -4.36613638       0.27996669 
C       4.25845040      -2.97911827       0.29752084 
C       3.05843435      -2.23322920       0.28731165 
C       3.08295737      -0.78653180       0.29874385 
N       4.15578808       0.09246748       0.35754664 
C       3.66489799       1.40519889       0.33227132 
C       4.17038250       2.71587601       0.35963808 
C       3.20266848       3.73470384       0.30975787 
C       1.79894988       3.53478621       0.23666092 
C       1.29383533       2.22262814       0.21018509 
O       0.02540662       1.77343671       0.14677628 
C       2.28561244       1.24121980       0.25991437 
N       1.96389552      -0.08189562       0.24002729 
H       0.88077465      -4.86447707       0.21305139 
H       3.00415019      -6.13011667       0.23546862 
H       5.19430881      -4.91420538       0.28722474 
H       5.20538773      -2.44621261       0.31576080 
H       5.12889267      -0.18192773       0.41447793 
H       5.22809958       2.94548815       0.41540622 
H       3.55565632       4.76242230       0.32943250 
H       1.13632294       4.39440336       0.20305418 
O      -2.00621316      -0.60952950       0.03576276 
H      -2.40135383      -0.67024758       0.92276405 
N      -0.12954911      -0.32292999       2.27219950 
C       0.68048511      -1.08887227       3.07799133 
C       0.61696624      -1.04044177       4.44848183 
C      -0.31416895      -0.18071827       5.08947139 
C      -0.45144161      -0.07757769       6.49807536 
C      -1.38535884       0.78465322       7.03803272 
C      -2.21564491       1.57737882       6.20292386 
C      -2.10382243       1.50068022       4.83056120 
C      -1.15226205       0.61931414       4.24960891 
C      -1.00452841       0.50260880       2.84732401 
H       1.37673103      -1.73848162       2.56469911 
H       1.28033169      -1.66392562       5.03897479 
H       0.18353641      -0.68340578       7.13747206 
H      -1.49026041       0.86097850       8.11596270 
H      -2.94172151       2.24646085       6.65364743 
H      -2.73360358       2.10187011       4.18140184 
H      -1.61544643       1.10596045       2.18320374 
N       0.02556762      -0.41151521      -1.93102543 
C       0.95495211      -1.13147535      -2.64394842 
C       0.99530261      -1.13054074      -4.01621061 
C       0.05277651      -0.36806430      -4.75558876 
C       0.02308737      -0.31333141      -6.17331979 
C      -0.92908480       0.45507418      -6.81356202 
C      -1.88599301       1.19759912      -6.07307127 
C      -1.88138818       1.16507012      -4.69446147 
C      -0.91228183       0.38177256      -4.01086573 
C      -0.86865364       0.31704876      -2.59815727 
H       1.66155522      -1.70308674      -2.05685991 
H       1.75032705      -1.71499289      -4.53179749 
H       0.75464803      -0.88154096      -6.73993313 
H      -0.95076520       0.49520466      -7.89832959 
H      -2.62413901       1.79271304      -6.60136281 
H      -2.60830942       1.72895968      -4.11734273 
H      -1.58399616       0.87309936      -2.00182099 
