53
Properties=species:S:1:pos:R:3 pbc="F F F"
Ru       0.00465856       0.11402737       0.20070373 
O       1.98980602      -3.53136521       0.42803552 
C       1.62350071      -2.34345015       0.36770669 
O       0.37670896      -1.96490741       0.30379518 
C       2.61697511      -1.21639573       0.36683730 
C       4.00043754      -1.34196038       0.42924251 
C       4.77428238      -0.17591264       0.41871690 
C       4.15780089       1.07373355       0.34765853 
C       2.76060540       1.13858781       0.28841702 
C       1.92572789       2.34647704       0.21205139 
C       2.41440098       3.65332567       0.19093514 
C       1.51837248       4.71898023       0.12022045 
C       0.14930320       4.45421266       0.07181573 
C      -0.28798831       3.13321454       0.09535231 
N       0.57601765       2.09992210       0.16361724 
N       2.03326859      -0.00327256       0.29821322 
H       4.45105514      -2.32590610       0.48429586 
H       5.85547431      -0.24043023       0.46555902 
H       4.74991163       1.98092383       0.33869204 
H       3.48253101       3.82968490       0.23073639 
H       1.88642003       5.73868273       0.10333307 
H      -0.58185118       5.25199965       0.01602646 
H      -1.33711613       2.86692359       0.05845701 
O      -1.92359668       0.46976140       0.01055897 
H      -2.32745260       0.60704087       0.88631339 
N      -0.19024607       0.12019077       2.30595084 
C       0.46506250       0.98891663       3.14602654 
C       0.31555820       0.94880605       4.50955510 
C      -0.54265703      -0.01187865       5.10517288 
C      -0.74969007      -0.12076635       6.50452607 
C      -1.60096468      -1.08822413       7.00027654 
C      -2.27811503      -1.98169439       6.12941862 
C      -2.09769940      -1.90009623       4.76482910 
C      -1.22623993      -0.91373028       4.22875314 
C      -1.00428773      -0.79367433       2.83708820 
H       1.11471921       1.71430898       2.67603543 
H       0.85791848       1.65628850       5.12798429 
H      -0.23162372       0.56190234       7.17106688 
H      -1.75799356      -1.17114002       8.07132256 
H      -2.94083433      -2.73290999       6.54680642 
H      -2.60991295      -2.57809770       4.08878815 
H      -1.50006581      -1.46612196       2.14421190 
N       0.06177768      -0.01733194      -1.90809023 
C       0.84858784       0.72433336      -2.71824604 
C       0.83730399       0.57520746      -4.10152000 
C      -0.01276256      -0.36998093      -4.67803083 
C      -0.82596946      -1.13637483      -3.84126334 
C      -0.76209927      -0.93389458      -2.46698490 
H       1.49674842       1.45080976      -2.24429357 
H       1.48879371       1.19534669      -4.70654433 
H      -0.03974905      -0.50693448      -5.75389433 
H      -1.50269766      -1.88496098      -4.23711198 
H      -1.37301631      -1.50642329      -1.77923222 
