64
Properties=species:S:1:pos:R:3 pbc="F F F"
Ru      -0.24491643       0.36126836      -0.24909731 
O       0.37045560      -3.80542357      -0.71154859 
C       0.68283463      -2.58889093      -0.63697703 
O      -0.21421125      -1.69071279      -0.35545734 
C       2.09521117      -2.16777171      -0.84995619 
C       3.08675020      -3.11304660      -1.15374448 
C       4.43187762      -2.75161025      -1.32913476 
C       4.85904946      -1.42636185      -1.20210373 
C       3.87929277      -0.48308196      -0.89939752 
N       3.93208915       0.88453538      -0.70292311 
C       2.67086487       1.34313677      -0.42889152 
C       2.33678798       2.72850874      -0.17450807 
C       3.37361095       3.68341799      -0.02370237 
C       3.10537232       5.02354668       0.19781683 
C       1.76629178       5.45013265       0.27423526 
C       0.72931412       4.54191666       0.13622270 
C       0.97391849       3.16215673      -0.08584735 
O      -0.09001922       2.38021904      -0.23053311 
N       1.80789456       0.31354315      -0.44050087 
C       2.52205517      -0.83224486      -0.73119327 
H       2.79536170      -4.15312565      -1.25122611 
H       5.15904849      -3.52154317      -1.56513720 
H       5.89861386      -1.14616624      -1.33199267 
H       4.76539533       1.45492732      -0.77641640 
H       4.40915681       3.36013177      -0.07071615 
H       3.91953183       5.73056572       0.31534103 
H       1.53839680       6.49787804       0.44787140 
H      -0.30630761       4.86283930       0.19571663 
O      -2.22239876       0.43972418      -0.01919577 
H      -2.65287694       0.45340591      -0.89174054 
N      -0.11692999       0.23410327       1.84928575 
C       0.78415449       0.96166275       2.58988858 
C       0.86392989       0.86892585       3.95714115 
C      -0.00615304      -0.00252918       4.66328322 
C       0.00767143      -0.15561244       6.07403231 
C      -0.87675669      -1.02506914       6.68106323 
C      -1.80551839      -1.77537612       5.91317982 
C      -1.84124038      -1.64925880       4.54043328 
C      -0.94253255      -0.76021500       3.89073397 
C      -0.94375330      -0.59541072       2.48555781 
H       1.43721367       1.61808166       2.02981715 
H       1.59486420       1.46506741       4.49359410 
H       0.71826838       0.41800719       6.66145462 
H      -0.86605614      -1.14052831       7.76056901 
H      -2.48986136      -2.45152265       6.41584051 
H      -2.54778386      -2.21775485       3.94292041 
H      -1.63961940      -1.15400898       1.86940371 
N      -0.44823217       0.41152041      -2.34155707 
C       0.21568281       1.33790509      -3.11163835 
C       0.09363250       1.38561410      -4.47792757 
C      -0.74682154       0.45984759      -5.15122552 
C      -0.93360729       0.44385114      -6.55785518 
C      -1.77111079      -0.49280940      -7.13067053 
C      -2.45302754      -1.44781944      -6.33203627 
C      -2.29084846      -1.45771237      -4.96257672 
C      -1.43579825      -0.50351327      -4.34789376 
C      -1.23998588      -0.47390556      -2.94666461 
H       0.84334912       2.03541878      -2.57330804 
H       0.64103375       2.13537985      -5.03969833 
H      -0.41217462       1.17390219      -7.16953613 
H      -1.91369360      -0.50305524      -8.20693554 
H      -3.10545876      -2.17265629      -6.80840066 
H      -2.80701262      -2.18327384      -4.34090675 
H      -1.73840307      -1.19771646      -2.30972599 
