57
Properties=species:S:1:pos:R:3 pbc="F F F"
Ru      -0.05527244       0.07462610      -0.17277795 
O       2.32303664      -3.33003153      -0.05686550 
C       1.82575388      -2.18964850      -0.09433668 
O       0.54262976      -1.95389048      -0.14414553 
C       2.69254066      -0.95907242      -0.09486836 
C       4.08284056      -0.93194071      -0.05770715 
C       4.72317417       0.31261962      -0.07780730 
C       3.97367013       1.48819654      -0.14544109 
C       2.57746057       1.39941861      -0.18682267 
C       1.61166581       2.50531841      -0.28329139 
C       1.95034177       3.85640976      -0.36564341 
C       0.93890335       4.81284940      -0.44872616 
C      -0.39351692       4.39802864      -0.44667760 
C      -0.67948108       3.03866775      -0.36354625 
N       0.29697889       2.11206964      -0.28582467 
N       1.98169612       0.18406795      -0.15050153 
H       4.64096379      -1.85967874      -0.01411498 
H       5.80547683       0.36739967      -0.04568533 
H       4.46372930       2.45389097      -0.16747580 
H       2.99232495       4.15264843      -0.36559324 
H       1.19046692       5.86545103      -0.51389226 
H      -1.20991646       5.10776679      -0.50930308 
H      -1.69246678       2.65574729      -0.35762591 
O      -2.00745895       0.14386296      -0.13437847 
H      -2.29719848      -0.01800583      -1.05797545 
N      -0.08502605       0.07993714       1.92578922 
C       0.41593945       1.08989107       2.69718402 
C       0.38999190       1.03678835       4.07279545 
C      -0.17129585      -0.09411325       4.69463175 
C      -0.25318931      -0.28700322       6.09825839 
C      -0.82205422      -1.44035960       6.59375883 
C      -1.33156637      -2.43986352       5.71852749 
C      -1.27007632      -2.28170317       4.35253610 
C      -0.68454611      -1.10228120       3.81584601 
N      -0.62964249      -0.98700712       2.46029228 
H       0.83087710       1.93465966       2.16607083 
H       0.79777957       1.85543407       4.65590260 
H       0.13730149       0.47933669       6.76003608 
H      -0.88538234      -1.59555371       7.66594240 
H      -1.77230098      -3.33742198       6.13991971 
H      -1.65188293      -3.03440422       3.67102753 
N      -0.15230220      -0.04325222      -2.27515685 
C       0.89393793       0.22189011      -3.10872362 
C       0.78770543       0.08161347      -4.47584688 
C      -0.43595269      -0.34915454      -5.01986952 
C      -0.68142813      -0.54118169      -6.40460705 
C      -1.92445463      -0.96478465      -6.82158648 
C      -2.96710135      -1.21212377      -5.88471342 
C      -2.76299296      -1.03491158      -4.53526875 
C      -1.48855495      -0.59964700      -4.08007918 
N      -1.31390306      -0.43944345      -2.74120039 
H       1.80952146       0.54708421      -2.63473040 
H       1.63911138       0.30032136      -5.11116505 
H       0.11752123      -0.35031394      -7.11364237 
H      -2.11873297      -1.11460935      -7.87862772 
H      -3.93432577      -1.54552716      -6.24596209 
H      -3.54575925      -1.21993317      -3.80740216 
