47
Properties=species:S:1:pos:R:3 pbc="F F F"
Ru       0.04914865       0.17251647       0.07915194 
O       1.71011126      -3.63425584       0.03765198 
C       1.44932730      -2.41751370       0.06706088 
O       0.24147538      -1.92822794       0.01013560 
C       2.53480791      -1.38397151       0.17545199 
C       3.89948696      -1.63355162       0.26765859 
C       4.76860540      -0.54167236       0.37438415 
C       4.26293853       0.75866441       0.38419351 
C       2.87939084       0.94947268       0.28312655 
C       2.15068340       2.22719771       0.27377792 
C       2.74609175       3.48778350       0.34183539 
C       1.94286029       4.62721523       0.32863861 
C       0.55730258       4.48234193       0.24512466 
C       0.01225189       3.20411188       0.17490235 
N       0.78668103       2.09987371       0.18818377 
N       2.05885642      -0.12284441       0.18309638 
H       4.26343121      -2.65417068       0.25843253 
H       5.83790710      -0.70278045       0.45163751 
H       4.92984843       1.60770710       0.47133010 
H       3.82419555       3.57206031       0.40303554 
H       2.39484166       5.61125346       0.38217487 
H      -0.10386556       5.34080827       0.23288264 
H      -1.05455069       3.03077094       0.10583722 
O      -1.85471310       0.63950072      -0.07913674 
H      -2.26305038       0.71781972       0.80145162 
N      -0.13721465       0.01622998       2.18089285 
C       0.53601621       0.76818029       3.08091569 
C       0.37224902       0.60605055       4.45264642 
C      -0.51850375      -0.36002130       4.92345815 
C      -1.21700028      -1.13428020       3.99548155 
C      -1.00091544      -0.92097769       2.63821569 
H       1.21720863       1.51233997       2.68740504 
H       0.93827814       1.23392022       5.13120208 
H      -0.66491841      -0.50624208       5.98838716 
H      -1.92033162      -1.89768181       4.30777297 
H      -1.51493417      -1.50311761       1.88224222 
N       0.07200481       0.18113600      -2.02881012 
C       0.89043256       0.92813814      -2.80315803 
C       0.84556503       0.87929578      -4.19272725 
C      -0.07258189       0.03238061      -4.81539966 
C      -0.91691507      -0.74059049      -4.01629852 
C      -0.81681386      -0.64147634      -2.63270858 
H       1.59303237       1.57666412      -2.29544068 
H       1.52436649       1.50007212      -4.76629878 
H      -0.12781003      -0.02519320      -5.89729956 
H      -1.64611005      -1.41605305      -4.44887335 
H      -1.44930085      -1.22436760      -1.97419387 
