52
Properties=species:S:1:pos:R:3 pbc="F F F"
Ru      -0.36019921      -0.14129333       0.29886732 
O       0.57972566       3.85358878       1.37790751 
C       0.78617158       2.63424731       1.14507126 
O      -0.12050698       1.90416218       0.56561214 
C       2.10819487       2.02982971       1.48569215 
C       3.13748629       2.80544988       2.03915717 
C       4.42040275       2.28145325       2.27070912 
C       4.75136166       0.96392162       1.93871065 
C       3.73353604       0.18703310       1.38744209 
N       3.69107769      -1.11875992       0.92783996 
C       2.42540671      -1.38756940       0.47900405 
C       1.98583347      -2.64783518      -0.08029281 
C       2.93838526      -3.61082492      -0.49034394 
C       2.55330909      -4.84406205      -0.99378564 
C       1.18388042      -5.14762553      -1.09221707 
C       0.22710957      -4.22306419      -0.69870268 
C       0.59192148      -2.95248175      -0.19258777 
O      -0.39273839      -2.15148131       0.21470742 
N       1.65206269      -0.30382443       0.64267833 
C       2.43141428       0.69372450       1.18900805 
H       2.93209476       3.84280655       2.27992480 
H       5.18084446       2.92296444       2.70373983 
H       5.74872897       0.56922013       2.09813758 
H       4.45340305      -1.78500440       0.96638169 
H       3.99634363      -3.37312601      -0.42771009 
H       3.30297215      -5.56079686      -1.31157924 
H       0.86709324      -6.10934492      -1.48528933 
H      -0.83210911      -4.45129660      -0.76956084 
O      -2.30378861       0.01954207      -0.13397659 
H      -2.82230945       0.16423722       0.67599560 
N      -0.74675131      -0.24750020       2.36342916 
C      -1.52323829       0.68776691       2.95772575 
C      -1.79028739       0.67476502       4.32348371 
C      -1.23447948      -0.33206273       5.11444560 
C      -0.42857638      -1.29475218       4.50253319 
C      -0.20863955      -1.22347332       3.13069275 
H      -1.92025951       1.46078553       2.31011603 
H      -2.42114039       1.44701767       4.74903173 
H      -1.42255707      -0.36494187       6.18244663 
H       0.02839184      -2.09552475       5.07293842 
H       0.40544303      -1.95175136       2.61447737 
N       0.02478587      -0.03833827      -1.75694118 
C      -0.68085548      -0.81392905      -2.61089015 
C      -0.44391689      -0.81240584      -3.98214466 
C       0.55411300       0.01640718      -4.49835870 
C       1.27884841       0.82110772      -3.61652102 
C       0.98829905       0.76884542      -2.25710191 
H      -1.44365166      -1.43957990      -2.16346927 
H      -1.03575974      -1.45418656      -4.62505369 
H       0.76166323       0.03570858      -5.56311565 
H       2.06126365       1.48433801      -3.96791267 
H       1.52241902       1.37929106      -1.53825518 
