54
Properties=species:S:1:pos:R:3 pbc="F F F"
Ru       0.05430420       0.04064684       0.02002103 
C      -0.13738644       4.44733809       0.14120394 
C       1.21247692       4.78020608       0.03292999 
C       2.16173143       3.76126083      -0.04029930 
C       1.74438946       2.43029870      -0.00427022 
C       2.66763234       1.28288035      -0.05005506 
C       4.06373750       1.33186967      -0.12089357 
C       4.77576268       0.13200784      -0.12710567 
C       4.10753333      -1.09355802      -0.06430011 
C       2.71233700      -1.09403843      -0.00078835 
C       1.83625940      -2.27835673       0.06288289 
C       2.31399624      -3.58842415       0.08126954 
C       1.40891138      -4.64824970       0.14846590 
C       0.04220706      -4.37681215       0.19575952 
C      -0.37870514      -3.04953417       0.17395665 
N       0.48875207      -2.02282835       0.10770828 
N       2.04146076       0.08318978       0.00947639 
N       0.41119908       2.11288861       0.09934092 
C      -0.49852735       3.10321260       0.16839138 
H      -0.90793031       5.20677061       0.19835835 
H       1.52685367       5.81757797       0.00514917 
H       3.21508124       3.99826032      -0.12406889 
H       4.58521636       2.27997604      -0.16764951 
H       5.85830701       0.15047228      -0.17987937 
H       4.66331441      -2.02281092      -0.06742144 
H       3.37943599      -3.77874933       0.04404024 
H       1.77138338      -5.67012564       0.16445373 
H      -0.69422145      -5.16969236       0.24777218 
H      -1.43011834      -2.79079763       0.20637839 
H      -1.53564320       2.80109175       0.23733279 
N      -2.08883643      -0.03245162      -0.08778249 
C      -2.88816551       0.60661156       0.79815624 
C      -4.27624202       0.57102825       0.71452285 
C      -4.87598926      -0.15049969      -0.31896157 
C      -4.05558300      -0.81146227      -1.23465759 
C      -2.67424161      -0.73033952      -1.08884183 
H      -2.39139724       1.15751821       1.58836007 
H      -4.86618233       1.10422722       1.45129995 
H      -5.95617540      -0.19665473      -0.40832840 
H      -4.46967935      -1.38654168      -2.05501153 
H      -2.00092933      -1.22469363      -1.77881366 
N      -0.03581300      -0.04391352       2.16920004 
C       0.78268945       0.71001542       2.93932379 
C       0.76560232       0.65072257       4.32838353 
C      -0.11861874      -0.22520291       4.95973847 
C      -0.95966615      -1.01042921       4.16905423 
C      -0.89416423      -0.89074814       2.78563022 
H       1.46541111       1.37411938       2.42490743 
H       1.44147349       1.28162973       4.89398875 
H      -0.15082034      -0.29567834       6.04175255 
H      -1.66360116      -1.70776683       4.60821383 
H      -1.53795608      -1.48002097       2.14435246 
O       0.02433964       0.07540173      -1.92915823 
H       0.90978949       0.26855423      -2.28841588 
