61
Properties=species:S:1:pos:R:3 pbc="F F F"
Ru      -0.43515124       0.30323476       0.41322709 
O      -0.06527476       2.32738589       0.31756462 
C       1.07560696       3.02481647       0.43096295 
C       0.94691486       4.43600666       0.39622608 
C       2.04596894       5.27871316       0.49649115 
C       3.34134593       4.75333347       0.63800719 
C       3.50592121       3.37666227       0.67476859 
C       2.40824318       2.49255296       0.57406698 
C       2.60291491       1.05934981       0.61931087 
N       3.77095466       0.31559604       0.70389935 
C       3.43892038      -1.04633343       0.71517430 
C       4.09532138      -2.28699103       0.77790823 
C       3.25484947      -3.41378812       0.74851836 
C       1.83798862      -3.38311099       0.66192468 
C       1.18235184      -2.14079105       0.59863024 
O      -0.12869802      -1.84506270       0.50733226 
C       2.05059376      -1.04848901       0.63470521 
N       1.57447769       0.22624182       0.58225610 
H      -0.05410375       4.84315580       0.28759645 
H       1.89444167       6.35403500       0.46661035 
H       4.20112586       5.40994583       0.71945210 
H       4.50361095       2.96101618       0.78778449 
H       4.70526064       0.70477881       0.73988120 
H       5.17233013      -2.38870291       0.84291968 
H       3.72640774      -4.39190989       0.79394046 
H       1.28186106      -4.31552894       0.64309393 
O      -2.42599413       0.31226486       0.29008139 
H      -2.70280218       0.30056858      -0.64269165 
N      -0.62545292       0.38919836       2.48184533 
C       0.11558775       1.25656593       3.23851403 
C      -0.00996345       1.32289772       4.60667253 
C      -0.93540942       0.47105093       5.24211786 
C      -1.17359303       0.43734445       6.64059671 
C      -2.10655372      -0.43917027       7.15254347 
C      -2.83301600      -1.31291736       6.29735744 
C      -2.62265956      -1.30589284       4.93645411 
C      -1.66736976      -0.40970292       4.38313033 
N      -1.49238839      -0.42992689       3.03123677 
H       0.80408598       1.88383212       2.69014804 
H       0.59356201       2.02103086       5.17685159 
H      -0.61562394       1.10741841       7.28701149 
H      -2.29414899      -0.46805060       8.22107949 
H      -3.56182395      -1.99172883       6.72832789 
H      -3.16879112      -1.96556529       4.27023234 
N      -0.27621324       0.15974912      -1.68623407 
C       0.53061128       0.99739971      -2.42012736 
C       0.63594511       0.91104476      -3.78609599 
C      -0.10879901      -0.06628175      -4.49807759 
C      -0.06672067      -0.21528916      -5.90863723 
C      -0.82643736      -1.19250827      -6.52084334 
C      -1.65353782      -2.05876715      -5.75881349 
C      -1.71326833      -1.94003892      -4.38618897 
C      -0.94329829      -0.94070227      -3.73181343 
C      -0.97651138      -0.77617450      -2.32678374 
H       1.08167011       1.73654586      -1.85449829 
H       1.28888730       1.59486507      -4.31851185 
H       0.56581976       0.44675338      -6.49225546 
H      -0.79464451      -1.30384131      -7.60036441 
H      -2.24067306      -2.81765649      -6.26605637 
H      -2.34253635      -2.59645095      -3.79247348 
H      -1.58869874      -1.43158119      -1.71524400 
