45
Properties=species:S:1:pos:R:3 pbc="F F F"
Ru      -0.03020074      -0.11401368       0.37361565 
O       2.52085271      -3.29719878       1.03483353 
C       1.97489340      -2.20448118       0.80233163 
O       0.68476302      -2.05837670       0.62341279 
C       2.76462074      -0.93085565       0.68457543 
C       4.14926104      -0.79129804       0.75871494 
C       4.70233376       0.48474787       0.60323501 
C       3.86852856       1.58754653       0.38710543 
C       2.49159715       1.38080967       0.33300477 
C       1.42694850       2.42512764       0.14600782 
O       0.20408165       1.96506814       0.21726573 
O       1.70791070       3.62286681      -0.03868371 
N       1.98078260       0.14339417       0.47652003 
H       4.77064035      -1.66246381       0.93046780 
H       5.77698889       0.61949793       0.65280964 
H       4.26846016       2.58770074       0.26673260 
O      -1.97656300      -0.37740920       0.19362967 
H      -2.32854830      -0.54205990       1.08982089 
N      -0.26450105      -0.05661300       2.44374825 
C       0.46528048       0.75337428       3.26567249 
C       0.28320798       0.75676061       4.63052238 
C      -0.68499844      -0.10192787       5.18526302 
C      -0.97313582      -0.20277643       6.57126659 
C      -1.94317980      -1.08175033       7.00242526 
C      -2.66114847      -1.88969762       6.07739881 
C      -2.40725555      -1.81462644       4.72634555 
C      -1.41086022      -0.91619480       4.25657907 
N      -1.18117352      -0.87061316       2.91454945 
H       1.19072568       1.39084718       2.77878037 
H       0.87795688       1.41192768       5.25782219 
H      -0.42138002       0.41657783       7.27104094 
H      -2.16693195      -1.16412964       8.06106843 
H      -3.41810116      -2.57310903       6.44809767 
H      -2.94526197      -2.42398154       4.00796021 
N       0.05396456      -0.20641588      -1.73176158 
C      -0.71509877       0.66604752      -2.42279166 
C      -0.76607257       0.67154857      -3.81296320 
C       0.00344399      -0.25046417      -4.52469816 
C       0.79777522      -1.14991617      -3.81162770 
C       0.79698639      -1.10036947      -2.42140222 
H      -1.29253074       1.36459548      -1.82975134 
H      -1.40053512       1.39075933      -4.31835772 
H      -0.01555738      -0.26792111      -5.60925415 
H       1.41300806      -1.88669010      -4.31548823 
H       1.39332510      -1.79023329      -1.83787238 
