62
Properties=species:S:1:pos:R:3 pbc="F F F"
Ru      -0.21263753      -0.09103027       0.56689921 
O       0.47578998       4.06504083       0.51459233 
C       0.72107265       2.83301003       0.55591814 
O      -0.25924707       1.97297396       0.50181192 
C       2.14715793       2.38469307       0.65962582 
C       3.18482931       3.32904373       0.67242362 
C       4.53665568       2.95559531       0.77192372 
C       4.93034581       1.61780915       0.86685295 
C       3.90776910       0.66987520       0.85684842 
N       3.90613391      -0.71376579       0.93109178 
C       2.60957752      -1.15715526       0.87917062 
C       2.17709144      -2.54159236       0.92809268 
C       3.14416659      -3.56468576       1.07252583 
C       2.79552582      -4.90630317       1.12429805 
C       1.44181677      -5.26587722       1.03168797 
C       0.46930182      -4.28631079       0.89292338 
C       0.79445910      -2.91006845       0.83611447 
O      -0.25204195      -2.08147303       0.70813322 
N       1.79090831      -0.10578388       0.77415236 
C       2.54967165       1.03930760       0.75466407 
H       2.92750255       4.38007314       0.60275548 
H       5.29640215       3.73020734       0.77480013 
H       5.97409365       1.33385897       0.94401344 
H       4.73148403      -1.29560278       1.00854421 
H       4.19430887      -3.30148790       1.15140821 
H       3.56452419      -5.66308055       1.23631248 
H       1.14874074      -6.31085659       1.06991940 
H      -0.58144413      -4.55092374       0.82212106 
N      -2.27872727      -0.07699264       0.22877293 
C      -3.15783688      -0.74945428       1.03054659 
C      -4.50898097      -0.77753410       0.77193916 
C      -4.99389116      -0.09313280      -0.36043534 
C      -6.35862204      -0.03772173      -0.74575709 
C      -6.71880372       0.65603693      -1.88126253 
C      -5.74043631       1.31785676      -2.67324844 
C      -4.40811975       1.28413757      -2.32579719 
C      -4.01147055       0.57619430      -1.15898885 
N      -2.68461271       0.56525007      -0.84400060 
H      -2.71974241      -1.25749984       1.87881552 
H      -5.17987364      -1.31869580       1.43059197 
H      -7.09962783      -0.54598222      -0.13695630 
H      -7.76102553       0.70139644      -2.18048469 
H      -6.05402240       1.85564924      -3.56205529 
H      -3.64985651       1.78455523      -2.91885685 
N      -0.33505404       0.00818189       2.72111783 
C      -0.60174758      -1.10598852       3.46869213 
C      -0.60178549      -1.08165031       4.84511801 
C      -0.32108418       0.13340575       5.49893504 
C      -0.28847739       0.30624520       6.90722717 
C      -0.00125196       1.54712468       7.43416079 
C       0.26393837       2.65788281       6.58584301 
C       0.24116498       2.52209869       5.21594090 
C      -0.05281374       1.25230093       4.64674447 
N      -0.06103318       1.16015258       3.28687958 
H      -0.80496335      -2.00247953       2.89917725 
H      -0.81536256      -1.98548133       5.40582683 
H      -0.49150505      -0.54573975       7.54833179 
H       0.02473127       1.68586614       8.51020295 
H       0.48648244       3.62245848       7.03039236 
H       0.44025330       3.35901140       4.55479846 
O       0.04945914      -0.13096964      -1.39594333 
H      -0.82775519       0.06505859      -1.77974823 
