65
Properties=species:S:1:pos:R:3 pbc="F F F"
Ru       0.12799787      -0.17895922      -0.00207690 
C      -0.21552730       4.18298936      -0.22630720 
C       1.11317522       4.58593945      -0.36036899 
C       2.12118135       3.62189901      -0.37129291 
C       1.78037532       2.27382379      -0.25307059 
C       2.74782909       1.16590857      -0.23420288 
C       4.13856737       1.26838261      -0.32296735 
C       4.90413597       0.10338677      -0.24632590 
C       4.28747340      -1.13782492      -0.08088855 
C       2.89335704      -1.18957350      -0.00289389 
C       2.06932505      -2.39829140       0.15766993 
C       2.57968736      -3.68891773       0.30494826 
C       1.69924149      -4.76090832       0.44715238 
C       0.32483143      -4.52020374       0.43631225 
C      -0.13158412      -3.21384366       0.28578254 
N       0.71860886      -2.17727368       0.14963609 
N       2.16431913      -0.04889482      -0.08680745 
N       0.47306916       1.89313415      -0.12454152 
C      -0.49927675       2.82447966      -0.10984989 
H      -1.02794218       4.89967519      -0.20858792 
H       1.36652564       5.63618592      -0.45194323 
H       3.16043680       3.91173080      -0.46854310 
H       4.61359779       2.23379762      -0.44612626 
H       5.98443718       0.16319373      -0.31321826 
H       4.87723937      -2.04393962      -0.01736050 
H       3.65124490      -3.84811099       0.31174671 
H       2.08384011      -5.76793818       0.56396653 
H      -0.39390212      -5.32425849       0.54197920 
H      -1.18567321      -2.96491930       0.26874718 
H      -1.51224075       2.45668776       0.00121240 
O      -1.78776921      -0.53424068       0.00889230 
H      -2.04543555      -0.54475263       0.95886307 
N       0.05292021      -0.06900158       2.11237511 
C       1.13877858       0.19322174       2.89414236 
C       1.04169001       0.27947747       4.26670956 
C      -0.21500744       0.09360582       4.87039420 
C      -0.45809349       0.16203717       6.26715982 
C      -1.73552799      -0.03447479       6.74424116 
C      -2.81566369      -0.30632566       5.85778653 
C      -2.61488891      -0.38095510       4.49837996 
C      -1.30589908      -0.18037900       3.98167513 
N      -1.13579854      -0.25500972       2.63532360 
H       2.07556411       0.33087363       2.37305622 
H       1.92434563       0.49007348       4.86088473 
H       0.36999526       0.36994159       6.93688835 
H      -1.92898981       0.01778003       7.81069452 
H      -3.80969231      -0.45517589       6.26630118 
H      -3.42679151      -0.58611482       3.80887411 
N       0.00368556      -0.23065101      -2.10315342 
C       0.88563631      -0.92467520      -2.89712757 
C       0.79214979      -0.93608973      -4.26646612 
C      -0.24135785      -0.21225039      -4.91661169 
C      -0.40518861      -0.16661915      -6.32512471 
C      -1.43925609       0.56619078      -6.87324083 
C      -2.34794222       1.27933304      -6.04797058 
C      -2.21512945       1.25295832      -4.67594326 
C      -1.15894608       0.50654185      -4.08664924 
C      -0.98120724       0.45425812      -2.68509162 
H       1.66721673      -1.47161620      -2.38675793 
H       1.51357543      -1.50152120      -4.84689353 
H       0.28948424      -0.71155781      -6.95689114 
H      -1.56388442       0.60097993      -7.95111449 
H      -3.15097026       1.84750442      -6.50635994 
H      -2.90396862       1.79407647      -4.03413318 
H      -1.66449903       0.98519186      -2.03142683 
