52
Properties=species:S:1:pos:R:3 pbc="F F F"
Ru       0.08977147      -0.35428107      -0.22943801 
O       1.67554622       3.46310863      -0.15538153 
C       1.44613540       2.24076218      -0.18930932 
O       0.24497599       1.72495669      -0.17275018 
C       2.55217925       1.22826242      -0.25795695 
C       3.91998951       1.48691938      -0.30169145 
C       4.80399476       0.40436523      -0.37196549 
C       4.30660340      -0.90279091      -0.39787145 
C       2.92611914      -1.09295479      -0.35065504 
C       2.19229164      -2.40515583      -0.36944400 
O       0.88720405      -2.29191027      -0.32321969 
O       2.79173721      -3.49380177      -0.42590103 
N       2.09280354      -0.03715324      -0.28050116 
H       4.27466652       2.51097701      -0.28212390 
H       5.87331392       0.57950124      -0.40713187 
H       4.96674077      -1.76044733      -0.45376862 
O      -1.86179405      -0.65587210      -0.11366469 
H      -2.24764143      -0.70699921      -1.00595333 
N       0.08245836      -0.37672420       1.88301089 
C       0.96870849      -1.10397097       2.64047090 
C       0.92550060      -1.12324568       4.01207282 
C      -0.06650478      -0.37918456       4.70263339 
C      -0.19068183      -0.35696786       6.11597217 
C      -1.19198771       0.38769068       6.70697406 
C      -2.10430522       1.13898635       5.92055854 
C      -2.00561027       1.14098066       4.54517989 
C      -0.98532959       0.38102972       3.91157911 
C      -0.85099739       0.34341639       2.50394756 
H       1.71032296      -1.67256792       2.09603687 
H       1.64966631      -1.71417343       4.56305778 
H       0.50639368      -0.93248235       6.71742060 
H      -1.28863940       0.40117529       7.78824438 
H      -2.88364231       1.71324431       6.41130748 
H      -2.69867388       1.71096070       3.93361859 
H      -1.52916817       0.90800306       1.87353147 
N      -0.07510609      -0.22239496      -2.33358156 
C       0.61552723      -1.03217212      -3.20409852 
C       0.46131880      -0.95229349      -4.56535039 
C      -0.44688498      -0.01640007      -5.12585438 
C      -0.67598862       0.11854567      -6.51953737 
C      -1.58661684       1.04874030      -6.97993181 
C      -2.30037775       1.88054460      -6.07778982 
C      -2.09578956       1.77574368      -4.71814092 
C      -1.16616092       0.82437622      -4.21802387 
C      -0.92828506       0.67337921      -2.83174650 
H       1.28923023      -1.74883034      -2.75472994 
H       1.03253087      -1.61341502      -5.20864511 
H      -0.13042751      -0.51796784      -7.20949047 
H      -1.76382452       1.14904105      -8.04631041 
H      -3.01136365       2.60216467      -6.46715916 
H      -2.63627195       2.40647426      -4.01865338 
H      -1.44828282       1.30183775      -2.11562119 
