55
Properties=species:S:1:pos:R:3 pbc="F F F"
Ru      -0.01980058      -0.00700597      -0.03204195 
C      -4.26667983      -0.78639501      -0.08125954 
C      -4.29206048       0.57857267      -0.10883160 
C      -2.91561450       1.03038122      -0.09409358 
C      -2.50224641       2.36451607      -0.07408925 
C      -1.18496880       2.83141064      -0.00362886 
C      -0.79309454       4.21867463       0.04122208 
C       0.57544337       4.25194542       0.09826955 
C       1.03268217       2.88557411       0.08329590 
N      -0.05717050       2.04129893       0.03002287 
C       2.37066591       2.47768704       0.09119572 
C       2.83929486       1.16391550       0.03212578 
C       4.23027206       0.76729551       0.00927666 
C       4.25643551      -0.59667585      -0.05767385 
C       2.88131215      -1.04953217      -0.07008778 
N       2.04169860       0.04055225      -0.01772957 
C       2.46732844      -2.38424641      -0.09917180 
C       1.14864985      -2.85419456      -0.06657482 
C       0.75485599      -4.24141288      -0.07569576 
C      -0.61442178      -4.27415043      -0.03926471 
C      -1.07082183      -2.90771141      -0.01373916 
N       0.02090722      -2.06309764      -0.01992221 
C      -2.40802909      -2.49806943      -0.01898436 
C      -2.87480241      -1.18251993      -0.05564606 
N      -2.07807894      -0.05921194      -0.07087906 
H      -5.10165479      -1.47502936      -0.07742587 
H      -5.15287968       1.23446961      -0.13079107 
H      -3.28341601       3.11830662      -0.09738638 
H      -1.48267508       5.05288993       0.02679743 
H       1.22393613       5.11746078       0.13909724 
H       3.11925741       3.26298433       0.13011878 
H       5.06549759       1.45496071       0.03901110 
H       5.11789524      -1.25114188      -0.09200966 
H       3.24935088      -3.13653640      -0.13412791 
H       1.44355496      -5.07565995      -0.11097620 
H      -1.26401538      -5.13979760      -0.03927391 
H      -3.15775188      -3.28324404      -0.01180654 
N      -0.06555316      -0.04258292       2.09159932 
C       0.78899693      -0.85558062       2.78645414 
C       0.79995816      -0.89995468       4.16118419 
C      -0.09289236      -0.07142296       4.87010580 
C      -0.18784209      -0.00999272       6.28458755 
C      -1.09834542       0.84351199       6.87057380 
C      -1.94469397       1.66453309       6.07554413 
C      -1.87677325       1.62703519       4.70049490 
C      -0.94642011       0.75461220       4.07129392 
N      -0.91647622       0.74400915       2.70763340 
H       1.45476224      -1.45713907       2.18296082 
H       1.48838894      -1.55810527       4.68050683 
H       0.46199776      -0.63912362       6.88469335 
H      -1.17507425       0.89440182       7.95193158 
H      -2.65169518       2.32701306       6.56433674 
H      -2.51584744       2.24638179       4.07982619 
O      -0.00184665       0.01062021      -2.01437539 
H       0.85158923       0.38838326      -2.29007096 
