61
Properties=species:S:1:pos:R:3 pbc="F F F"
Ru       3.87968008       1.88138504      -0.96915287 
O       2.54889019       1.66165900      -0.71525165 
C       1.99936286       0.40148637      -0.67939858 
O       2.79341634      -0.64757386      -0.89273356 
C       4.17628591      -0.52482103      -1.16482530 
C       4.74911002       0.78521391      -1.20893563 
C       2.33071617      -1.62795596      -0.85509508 
C       1.87217795       2.48587491      -0.53554839 
C       4.26030182       2.89724200      -0.98808097 
C      -0.07052194       0.08810387      -0.36838243 
C      -2.14073065      -0.25075364      -0.20993434 
C      -0.56768111       1.78948921      -1.51274432 
C      -0.88506935      -3.38996912       0.18492843 
C      -0.80583750       2.89408923      -0.85795098 
C      -1.20219483       3.94670618      -1.38985855 
O       0.34164327      -3.20690040       0.43098631 
O       1.33003541      -3.79617498      -0.09444189 
N       0.65160754      -2.23408109       1.56380195 
N       1.13421674      -2.76129960       2.76892431 
H       1.34561519      -3.82305112       2.82589393 
H       1.31348462      -1.92881202       3.86766415 
H       1.67841180      -2.32469216       4.80890309 
H       1.00472116      -0.57484466       3.74435225 
H       1.11671300       0.09830626       4.58513809 
H       0.55617937      -0.08695023       2.51927610 
O       0.19064223       1.31726991       2.29264581 
H       0.39701214      -0.91144403       1.42958816 
N       0.14249453       2.34079245       3.24800254 
C       0.41151039       2.14401551       4.27863930 
C      -0.26465507       3.61602780       2.85589615 
C      -0.31082473       4.41500333       3.58734582 
C      -0.60944412       3.86311203       1.52225174 
C      -0.92444871       4.84336819       1.18468111 
C      -0.53275626       2.81103364       0.61672308 
C      -0.14749461       1.57923946       1.01075308 
C       6.13366283       0.92330689      -1.48655263 
C       6.57030450       1.91674102      -1.52163573 
H       6.90541383      -0.19966469      -1.71026111 
H       7.96439892      -0.09269503      -1.92465609 
H       6.33539149      -1.49899618      -1.66541710 
H       6.96537799      -2.36400522      -1.84614613 
H       4.99303809      -1.66458477      -1.39660680 
H       4.54513615      -2.65318516      -1.36111407 
H      -2.89153266      -0.13855351      -1.30607555 
N      -2.38029109       0.14076620      -2.22131277 
C      -2.74847166      -0.59646758       0.97518950 
C      -2.10015965      -0.67625680       1.83761781 
C      -4.28859032      -0.36342082      -1.30957051 
C      -4.09707532      -0.82901892       1.07165451 
C      -4.92307808      -0.72226475      -0.07803875 
C      -6.32317996      -0.95039426      -0.06457926 
C      -4.52663377      -1.09799685       2.03097012 
C      -6.80610492      -1.22280076       0.86891380 
C      -7.05180000      -0.82495386      -1.23098767 
H      -8.12310157      -1.00076092      -1.21970729 
H      -6.42083243      -0.46851832      -2.45143259 
H      -7.01773585      -0.37727875      -3.35317474 
H      -5.06148395      -0.23995048      -2.49562048 
H      -4.56751358       0.03229679      -3.42353915 
H       0.05469325      -1.23053662      -1.81570463 
H      -0.76324509      -1.75725204      -1.86835456 
