60
Properties=species:S:1:pos:R:3 pbc="F F F"
Ru       0.00338780      -0.03094504       0.12465865 
O       2.48480991       3.28544944       0.26521850 
C       1.95539358       2.16024845       0.22521314 
O       0.66445065       1.96347907       0.22186563 
C       2.77912244       0.90536426       0.18398309 
C       4.16787024       0.84117047       0.16956121 
C       4.77368924      -0.41965240       0.12139174 
C       3.98866931      -1.57198055       0.09189840 
C       2.59386890      -1.44468810       0.11303912 
C       1.60734714      -2.53272560       0.10861783 
C       1.95538386      -3.88011972       0.06528244 
C       0.94862762      -4.84492849       0.05441336 
C      -0.37757703      -4.43238101       0.09978913 
C      -0.68306518      -3.06603297       0.16440819 
C      -2.14894590      -2.66466136       0.27705456 
O      -2.83530332      -2.76359067      -0.78088710 
O      -2.54948077      -2.34806078       1.43334857 
N       0.29149408      -2.12761032       0.15586877 
N       2.03135304      -0.21676206       0.15880230 
H       4.75015054       1.75461604       0.19432162 
H       5.85446532      -0.50441394       0.10723671 
H       4.45005645      -2.55118570       0.05535552 
H       2.99956533      -4.16606962       0.03426338 
H       1.19900982      -5.89907026       0.01209757 
H      -1.19115293      -5.14884353       0.09394440 
O      -1.90947227       0.36535802      -0.02879836 
H      -2.23317592       0.52239510       0.88182793 
N      -0.18179075       0.00245539       2.20658735 
C       0.65063647      -0.67204327       3.05176641 
C       0.49863022      -0.61596942       4.41953834 
C      -0.54691727       0.16087941       4.95297645 
C      -0.81761336       0.30716164       6.33846520 
C      -1.87320975       1.09400390       6.74556285 
C      -2.69617071       1.76269760       5.79671904 
C      -2.46060797       1.64213837       4.44574524 
C      -1.37778123       0.83595300       4.00063113 
N      -1.17036010       0.73795337       2.65899105 
H       1.43529618      -1.25221805       2.58617812 
H       1.17675674      -1.16437481       5.06436183 
H      -0.18638584      -0.20630150       7.05650680 
H      -2.08590507       1.20962144       7.80336622 
H      -3.51966449       2.37495504       6.14925015 
H      -3.07797814       2.14523136       3.70915852 
N       0.07001089       0.07189944      -1.99215963 
C       0.50664970      -0.94160061      -2.81206408 
C       0.54116921      -0.82042304      -4.17896321 
C       0.11675762       0.38365239      -4.79924503 
C       0.12679866       0.59285502      -6.20250643 
C      -0.30206905       1.79870896      -6.72104698 
C      -0.75703095       2.84008269      -5.87023382 
C      -0.77961808       2.66571818      -4.50264851 
C      -0.34294944       1.43414564      -3.94362782 
C      -0.34087494       1.21226884      -2.54721063 
H       0.82147669      -1.85346777      -2.32288712 
H       0.89452731      -1.65097742      -4.78093229 
H       0.47520557      -0.20265841      -6.85404675 
H      -0.29302073       1.95834150      -7.79491943 
H      -1.08794692       3.77780724      -6.30505393 
H      -1.12572391       3.45434647      -3.84118281 
H      -0.67769749       1.98947467      -1.87029652 
