54
Properties=species:S:1:pos:R:3 pbc="F F F"
Ru      -0.06699006       0.04967974       0.15449049 
O       1.69225489      -3.68802694       0.07009787 
C       1.39820733      -2.48037800       0.13674735 
O       0.18384613      -2.02080069       0.00802886 
C       2.44080697      -1.42982875       0.37811444 
C       3.79548839      -1.66038467       0.58833668 
C       4.62254786      -0.56116966       0.84251409 
C       4.08247284       0.72414015       0.88731557 
C       2.71077565       0.89498079       0.66001994 
C       1.96425210       2.15978867       0.66733494 
C       2.55415985       3.39434356       0.92543937 
C       1.76726748       4.54564470       0.90180848 
C       0.41703243       4.42978854       0.59605853 
C      -0.13161971       3.16871236       0.32445503 
C      -1.59823500       3.09922701      -0.08762455 
O      -1.81295892       3.05986914      -1.33240193 
O      -2.45103261       3.16457672       0.84442114 
N       0.62233143       2.04692194       0.38198883 
N       1.93565145      -0.18032804       0.40076937 
H       4.18118453      -2.67254242       0.55861634 
H       5.68346674      -0.70529831       1.01326945 
H       4.71562216       1.57786396       1.09546060 
H       3.61316340       3.45156125       1.14466984 
H       2.20689730       5.51460669       1.11087397 
H      -0.22787009       5.30019289       0.55246215 
O      -2.01060879       0.07192086      -0.11956492 
H      -2.48830069       0.04576899       0.72820136 
N      -0.30793213      -0.09300401       2.22270953 
C      -1.11738617       0.77739087       2.89834223 
C      -1.32062407       0.66798259       4.25678203 
C      -0.67304605      -0.36849205       4.95600617 
C      -0.79637867      -0.60247253       6.35081401 
C      -0.11405701      -1.65133004       6.92845761 
C       0.71553356      -2.50399679       6.14768866 
C       0.85842531      -2.30345100       4.79353448 
C       0.16304851      -1.22940812       4.17278143 
N       0.32371690      -1.06904070       2.83042176 
H      -1.58101718       1.55163355       2.29610588 
H      -1.96871590       1.37129976       4.76862512 
H      -1.42988282       0.05138887       6.94151203 
H      -0.20628288      -1.83548317       7.99394617 
H       1.23891583      -3.32200887       6.63183101 
H       1.48460733      -2.94466539       4.18210522 
N       0.08041577       0.10823765      -1.95245696 
C       0.85917361       0.98079239      -2.63051947 
C       0.90272120       1.01198935      -4.02040532 
C       0.11697728       0.11478598      -4.74606377 
C      -0.68453796      -0.78849231      -4.04626410 
C      -0.67755873      -0.76416409      -2.65510607 
H       1.45471845       1.66486818      -2.03903937 
H       1.54264858       1.73394401      -4.51473257 
H       0.12978808       0.11963650      -5.83087324 
H      -1.31186009      -1.50718930      -4.56123497 
H      -1.28507081      -1.44457281      -2.07171178 
